data/inputs/nesta_case2224_edin.m
%%%%%%%%%%%%%%%%%%%%%%%%%%%%%%%%%%%%%%%%%%%%%%%%%%%%%%%%%%%%%%%%%%%%%%%%%%%
%%%%                                                                  %%%%%
%%%%      NICTA Energy System Test Case Archive (NESTA) - v0.7.0      %%%%%
%%%%              Optimal Power Flow - Typical Operation              %%%%%
%%%%                         05 - June - 2017                         %%%%%
%%%%                                                                  %%%%%
%%%%%%%%%%%%%%%%%%%%%%%%%%%%%%%%%%%%%%%%%%%%%%%%%%%%%%%%%%%%%%%%%%%%%%%%%%%
%
%   UK network data obtained from following publicly available source:
%
%   Reference:
%   [1] GB SQSS Review working group report. [Online]
%       http://www.nationalgrid.com/uk/Electricity/Codes/gbsqsscode/workinggroups/intgeneration/
%
%   Data Stats: 2224 buses, 394 generators, 3207 branches
%
%   Acknowledgement:
%      Thanks to Manolis Belivanis, Strathclyde University for pointing out the
%      source of data and helping out with details.
%
%   W. A. Bukhsh, March 2013
%   send your questions and comments to : wbukhsh@gmail.com
%
function mpc = nesta_case2224_edin
mpc.version = '2';
mpc.baseMVA = 100.0;

%% area data
%	area	refbus
mpc.areas = [
	1	 1;
];

%% bus data
%	bus_i	type	Pd	Qd	Gs	Bs	area	Vm	Va	baseKV	zone	Vmax	Vmin
mpc.bus = [
	1	 1	 0.0	 0.0	 0.0	 0.0	 1	    1.04034	    9.67289	 275.0	 1	    1.06000	    0.94000;
	2	 2	 0.0	 0.0	 0.0	 0.0	 1	    1.06000	   20.00782	 275.0	 1	    1.06000	    0.94000;
	3	 2	 0.0	 0.0	 0.0	 0.0	 1	    1.06000	   21.21917	 275.0	 1	    1.06000	    0.94000;
	4	 2	 0.0	 0.0	 0.0	 0.0	 1	    1.06000	   21.09677	 275.0	 1	    1.06000	    0.94000;
	5	 1	 0.0	 0.0	 0.0	 0.0	 1	    1.04177	   -6.63640	 275.0	 1	    1.06000	    0.94000;
	6	 2	 0.0	 0.0	 0.0	 0.0	 1	    1.06000	    4.91110	 275.0	 1	    1.06000	    0.94000;
	7	 2	 0.0	 0.0	 0.0	 0.0	 1	    1.06000	    4.93063	 275.0	 1	    1.06000	    0.94000;
	8	 1	 0.0	 0.0	 0.0	 0.0	 1	    1.02684	   -5.86245	 275.0	 1	    1.06000	    0.94000;
	9	 2	 0.0	 0.0	 0.0	 0.0	 1	    0.95940	   -5.80472	 275.0	 1	    1.06000	    0.94000;
	10	 2	 0.0	 0.0	 0.0	 0.0	 1	    0.94917	    2.98522	 275.0	 1	    1.06000	    0.94000;
	11	 2	 0.0	 0.0	 0.0	 0.0	 1	    0.95884	   -5.80775	 275.0	 1	    1.06000	    0.94000;
	12	 2	 0.0	 0.0	 0.0	 0.0	 1	    1.06000	    0.55926	 275.0	 1	    1.06000	    0.94000;
	13	 2	 0.0	 0.0	 0.0	 0.0	 1	    0.96025	   11.06580	 275.0	 1	    1.06000	    0.94000;
	14	 1	 7.79	 21.52	 0.0	 0.0	 1	    1.05318	    7.96166	 400.0	 1	    1.06000	    0.94000;
	15	 2	 0.0	 0.0	 0.0	 0.0	 1	    1.04254	   19.28004	 400.0	 1	    1.06000	    0.94000;
	16	 2	 0.0	 0.0	 0.0	 0.0	 1	    1.03245	    7.96414	 400.0	 1	    1.06000	    0.94000;
	17	 2	 0.0	 0.0	 0.0	 0.0	 1	    1.02252	    7.96414	 400.0	 1	    1.06000	    0.94000;
	18	 2	 0.0	 0.0	 0.0	 0.0	 1	    1.03897	   16.62624	 400.0	 1	    1.06000	    0.94000;
	19	 1	 0.0	 0.0	 0.0	 0.0	 1	    1.05283	   11.85210	 400.0	 1	    1.06000	    0.94000;
	20	 2	 0.0	 0.0	 0.0	 0.0	 1	    1.06000	   22.38400	 400.0	 1	    1.06000	    0.94000;
	21	 2	 0.0	 0.0	 0.0	 0.0	 1	    1.06000	   22.38400	 400.0	 1	    1.06000	    0.94000;
	22	 2	 0.0	 0.0	 0.0	 0.0	 1	    1.06000	   16.90702	 400.0	 1	    1.06000	    0.94000;
	23	 1	 0.0	 0.0	 0.0	 0.0	 1	    1.02941	   -2.43131	 400.0	 1	    1.06000	    0.94000;
	24	 2	 0.0	 0.0	 0.0	 0.0	 1	    0.98145	   -2.40777	 400.0	 1	    1.06000	    0.94000;
	25	 2	 0.0	 0.0	 0.0	 0.0	 1	    1.01490	    9.71153	 400.0	 1	    1.06000	    0.94000;
	26	 1	 0.0	 0.0	 0.0	 0.0	 1	    1.04690	    0.28054	 400.0	 1	    1.06000	    0.94000;
	27	 2	 0.0	 0.0	 0.0	 0.0	 1	    1.06000	   11.43140	 400.0	 1	    1.06000	    0.94000;
	28	 2	 0.0	 0.0	 0.0	 0.0	 1	    1.06000	    6.88510	 400.0	 1	    1.06000	    0.94000;
	29	 1	 0.0	 0.0	 0.0	 0.0	 1	    1.05520	   15.52239	 400.0	 1	    1.06000	    0.94000;
	30	 2	 0.0	 0.0	 0.0	 0.0	 1	    1.05991	   22.59049	 400.0	 1	    1.06000	    0.94000;
	31	 2	 0.0	 0.0	 0.0	 0.0	 1	    1.05991	   22.59049	 400.0	 1	    1.06000	    0.94000;
	32	 2	 0.0	 0.0	 0.0	 0.0	 1	    1.05013	   15.54392	 400.0	 1	    1.06000	    0.94000;
	33	 2	 0.0	 0.0	 0.0	 0.0	 1	    1.05991	   22.59049	 400.0	 1	    1.06000	    0.94000;
	34	 2	 0.0	 0.0	 0.0	 0.0	 1	    1.05926	   22.28892	 400.0	 1	    1.06000	    0.94000;
	35	 2	 0.0	 0.0	 0.0	 0.0	 1	    1.01598	   15.52239	 400.0	 1	    1.06000	    0.94000;
	36	 1	 0.0	 0.0	 0.0	 0.0	 1	    1.04621	   12.20743	 400.0	 1	    1.06000	    0.94000;
	37	 2	 0.0	 0.0	 0.0	 0.0	 1	    1.04394	   22.48833	 400.0	 1	    1.06000	    0.94000;
	38	 2	 0.0	 0.0	 0.0	 0.0	 1	    1.02357	   12.21390	 400.0	 1	    1.06000	    0.94000;
	39	 2	 0.0	 0.0	 0.0	 0.0	 1	    1.04411	   22.66314	 400.0	 1	    1.06000	    0.94000;
	40	 1	 0.0	 0.0	 0.0	 0.0	 1	    1.04448	   12.60674	 400.0	 1	    1.06000	    0.94000;
	41	 2	 0.0	 0.0	 0.0	 0.0	 1	    1.06000	   12.55790	 400.0	 1	    1.06000	    0.94000;
	42	 2	 0.0	 0.0	 0.0	 0.0	 1	    1.06000	   22.52845	 400.0	 1	    1.06000	    0.94000;
	43	 2	 0.0	 0.0	 0.0	 0.0	 1	    1.06000	   12.55880	 400.0	 1	    1.06000	    0.94000;
	44	 1	 0.0	 0.0	 0.0	 0.0	 1	    1.04062	   -2.56228	 400.0	 1	    1.06000	    0.94000;
	45	 2	 0.0	 0.0	 0.0	 0.0	 1	    1.06000	   -2.59095	 400.0	 1	    1.06000	    0.94000;
	46	 2	 0.0	 0.0	 0.0	 0.0	 1	    1.06000	   -0.42698	 400.0	 1	    1.06000	    0.94000;
	47	 1	 0.0	 0.0	 0.0	 0.0	 1	    1.03676	   12.77922	 400.0	 1	    1.06000	    0.94000;
	48	 2	 0.0	 0.0	 0.0	 0.0	 1	    1.06000	   22.54005	 400.0	 1	    1.06000	    0.94000;
	49	 2	 0.0	 0.0	 0.0	 0.0	 1	    1.06000	   23.40973	 400.0	 1	    1.06000	    0.94000;
	50	 1	 15.98	 11.47	 0.0	 0.0	 1	    1.04692	   11.50289	 400.0	 1	    1.06000	    0.94000;
	51	 2	 0.0	 0.0	 0.0	 0.0	 1	    1.06000	   11.43562	 400.0	 1	    1.06000	    0.94000;
	52	 2	 0.0	 0.0	 0.0	 0.0	 1	    1.06000	   17.48795	 400.0	 1	    1.06000	    0.94000;
	53	 1	 0.0	 0.0	 0.0	 0.0	 1	    1.01868	   -8.33658	 400.0	 1	    1.06000	    0.94000;
	54	 2	 0.0	 0.0	 0.0	 0.0	 1	    1.00116	   -8.33658	 400.0	 1	    1.06000	    0.94000;
	55	 2	 0.0	 0.0	 0.0	 0.0	 1	    1.00116	   -8.33658	 400.0	 1	    1.06000	    0.94000;
	56	 1	 0.0	 0.0	 0.0	 0.0	 1	    1.00227	   11.73763	 275.0	 1	    1.06000	    0.94000;
	57	 2	 0.0	 0.0	 0.0	 0.0	 1	    0.94000	   22.18351	 275.0	 1	    1.06000	    0.94000;
	58	 1	 0.0	 0.0	 0.0	 0.0	 1	    1.02360	   12.76732	 275.0	 1	    1.06000	    0.94000;
	59	 2	 0.0	 0.0	 0.0	 0.0	 1	    1.01171	   24.94855	 275.0	 1	    1.06000	    0.94000;
	60	 1	 0.0	 0.0	 0.0	 0.0	 1	    1.00843	   11.16533	 275.0	 1	    1.06000	    0.94000;
	61	 2	 0.0	 0.0	 0.0	 0.0	 1	    1.00758	   23.31615	 275.0	 1	    1.06000	    0.94000;
	62	 2	 0.0	 0.0	 0.0	 0.0	 1	    0.94000	   11.75199	 275.0	 1	    1.06000	    0.94000;
	63	 1	 0.0	 0.0	 0.0	 0.0	 1	    1.04831	   12.30416	 275.0	 1	    1.06000	    0.94000;
	64	 2	 0.0	 0.0	 0.0	 0.0	 1	    1.00029	   12.41152	 275.0	 1	    1.06000	    0.94000;
	65	 2	 0.0	 0.0	 0.0	 0.0	 1	    1.01954	   12.36849	 275.0	 1	    1.06000	    0.94000;
	66	 1	 0.0	 0.0	 0.0	 0.0	 1	    1.04725	   12.41531	 275.0	 1	    1.06000	    0.94000;
	67	 2	 0.0	 0.0	 0.0	 0.0	 1	    1.06000	   12.37957	 275.0	 1	    1.06000	    0.94000;
	68	 1	 0.0	 0.0	 0.0	 0.0	 1	    1.04402	   14.62246	 275.0	 1	    1.06000	    0.94000;
	69	 2	 0.0	 0.0	 0.0	 0.0	 1	    1.06000	   25.99172	 275.0	 1	    1.06000	    0.94000;
	70	 1	 0.0	 0.0	 0.0	 0.0	 1	    1.03871	   13.07728	 275.0	 1	    1.06000	    0.94000;
	71	 2	 0.0	 0.0	 0.0	 0.0	 1	    1.01486	   18.66894	 275.0	 1	    1.06000	    0.94000;
	72	 1	 0.0	 0.0	 0.0	 0.0	 1	    1.03755	   13.08760	 275.0	 1	    1.06000	    0.94000;
	73	 2	 0.0	 0.0	 0.0	 0.0	 1	    1.00797	   24.98489	 275.0	 1	    1.06000	    0.94000;
	74	 1	 15.83	 10.93	 0.0	 0.0	 1	    1.04046	   -4.95200	 400.0	 1	    1.06000	    0.94000;
	75	 2	 0.0	 0.0	 0.0	 0.0	 1	    0.99120	   -4.95200	 400.0	 1	    1.06000	    0.94000;
	76	 2	 0.0	 0.0	 0.0	 0.0	 1	    0.99120	   -4.95200	 400.0	 1	    1.06000	    0.94000;
	77	 2	 0.0	 0.0	 0.0	 0.0	 1	    0.99120	   -4.95200	 400.0	 1	    1.06000	    0.94000;
	78	 2	 0.0	 0.0	 0.0	 0.0	 1	    0.99120	   -4.95200	 400.0	 1	    1.06000	    0.94000;
	79	 1	 0.0	 0.0	 0.0	 0.0	 1	    1.02718	   13.28020	 275.0	 1	    1.06000	    0.94000;
	80	 2	 0.0	 0.0	 0.0	 0.0	 1	    0.99056	   20.91789	 275.0	 1	    1.06000	    0.94000;
	81	 2	 0.0	 0.0	 0.0	 0.0	 1	    1.00062	   24.83090	 275.0	 1	    1.06000	    0.94000;
	82	 1	 0.0	 0.0	 0.0	 0.0	 1	    1.05365	   14.61869	 400.0	 1	    1.06000	    0.94000;
	83	 2	 0.0	 0.0	 0.0	 0.0	 1	    1.06000	   24.29842	 400.0	 1	    1.06000	    0.94000;
	84	 2	 0.0	 0.0	 0.0	 0.0	 1	    1.06000	   24.25274	 400.0	 1	    1.06000	    0.94000;
	85	 2	 0.0	 0.0	 0.0	 0.0	 1	    1.06000	   14.60068	 400.0	 1	    1.06000	    0.94000;
	86	 2	 0.0	 0.0	 0.0	 0.0	 1	    1.06000	   21.47055	 400.0	 1	    1.06000	    0.94000;
	87	 1	 0.0	 0.0	 0.0	 0.0	 1	    1.05645	    0.51856	 400.0	 1	    1.06000	    0.94000;
	88	 2	 0.0	 0.0	 0.0	 0.0	 1	    1.06000	   11.21222	 400.0	 1	    1.06000	    0.94000;
	89	 2	 0.0	 0.0	 0.0	 0.0	 1	    1.06000	   10.37701	 400.0	 1	    1.06000	    0.94000;
	90	 1	 0.0	 0.0	 0.0	 2.02	 1	    1.05277	    4.35656	 400.0	 1	    1.06000	    0.94000;
	91	 2	 0.0	 0.0	 0.0	 0.0	 1	    1.04621	   15.33190	 400.0	 1	    1.06000	    0.94000;
	92	 2	 0.0	 0.0	 0.0	 0.0	 1	    1.05627	    4.24015	 400.0	 1	    1.06000	    0.94000;
	93	 1	 0.0	 0.0	 0.0	 0.0	 1	    1.05212	   10.86481	 400.0	 1	    1.06000	    0.94000;
	94	 2	 0.0	 0.0	 0.0	 0.0	 1	    0.98767	   10.86846	 400.0	 1	    1.06000	    0.94000;
	95	 1	 0.0	 0.0	 0.0	 0.0	 1	    1.05564	   10.30345	 400.0	 1	    1.06000	    0.94000;
	96	 2	 0.0	 0.0	 0.0	 0.0	 1	    1.06000	   10.29600	 400.0	 1	    1.06000	    0.94000;
	97	 2	 0.0	 0.0	 0.0	 0.0	 1	    1.06000	   10.42486	 400.0	 1	    1.06000	    0.94000;
	98	 1	 0.0	 0.0	 0.0	 0.0	 1	    1.05915	   12.80317	 400.0	 1	    1.06000	    0.94000;
	99	 2	 0.0	 0.0	 0.0	 0.0	 1	    1.05999	   12.78996	 400.0	 1	    1.06000	    0.94000;
	100	 2	 0.0	 0.0	 0.0	 0.0	 1	    1.06000	   20.09658	 400.0	 1	    1.06000	    0.94000;
	101	 2	 0.0	 0.0	 0.0	 0.0	 1	    1.06000	   20.71653	 400.0	 1	    1.06000	    0.94000;
	102	 2	 0.0	 0.0	 0.0	 0.0	 1	    1.05999	   12.78985	 400.0	 1	    1.06000	    0.94000;
	103	 2	 0.0	 0.0	 0.0	 0.0	 1	    1.05999	   12.78940	 400.0	 1	    1.06000	    0.94000;
	104	 2	 0.0	 0.0	 0.0	 0.0	 1	    1.05999	   12.78940	 400.0	 1	    1.06000	    0.94000;
	105	 2	 0.0	 0.0	 0.0	 0.0	 1	    1.06000	   20.59240	 400.0	 1	    1.06000	    0.94000;
	106	 2	 0.0	 0.0	 0.0	 0.0	 1	    1.06000	   20.59240	 400.0	 1	    1.06000	    0.94000;
	107	 2	 0.0	 0.0	 0.0	 0.0	 1	    1.05999	   12.78956	 400.0	 1	    1.06000	    0.94000;
	108	 2	 0.0	 0.0	 0.0	 0.0	 1	    1.06000	   21.41967	 400.0	 1	    1.06000	    0.94000;
	109	 1	 0.0	 0.0	 0.0	 0.0	 1	    1.04531	   -4.92907	 400.0	 1	    1.06000	    0.94000;
	110	 2	 0.0	 0.0	 0.0	 0.0	 1	    1.06000	   -4.95698	 400.0	 1	    1.06000	    0.94000;
	111	 2	 0.0	 0.0	 0.0	 0.0	 1	    1.06000	    5.95202	 400.0	 1	    1.06000	    0.94000;
	112	 1	 0.0	 0.0	 0.0	 0.0	 1	    1.05160	   -4.56699	 400.0	 1	    1.06000	    0.94000;
	113	 2	 0.0	 0.0	 0.0	 0.0	 1	    1.06000	    5.70200	 400.0	 1	    1.06000	    0.94000;
	114	 2	 0.0	 0.0	 0.0	 0.0	 1	    1.06000	   -4.58927	 400.0	 1	    1.06000	    0.94000;
	115	 1	 0.0	 0.0	 0.0	 0.0	 1	    1.05871	   -0.17367	 400.0	 1	    1.06000	    0.94000;
	116	 2	 0.0	 0.0	 0.0	 0.0	 1	    1.05932	   -0.20099	 400.0	 1	    1.06000	    0.94000;
	117	 2	 0.0	 0.0	 0.0	 0.0	 1	    1.05996	   -0.20072	 400.0	 1	    1.06000	    0.94000;
	118	 2	 0.0	 0.0	 0.0	 0.0	 1	    1.05999	   -0.19994	 400.0	 1	    1.06000	    0.94000;
	119	 1	 0.0	 0.0	 0.0	 0.0	 1	    1.03481	   -8.37319	 400.0	 1	    1.06000	    0.94000;
	120	 2	 0.0	 0.0	 0.0	 0.0	 1	    1.03576	   -8.37818	 400.0	 1	    1.06000	    0.94000;
	121	 2	 0.0	 0.0	 0.0	 0.0	 1	    1.03600	   -8.34632	 400.0	 1	    1.06000	    0.94000;
	122	 2	 0.0	 0.0	 0.0	 0.0	 1	    0.98893	   -8.37319	 400.0	 1	    1.06000	    0.94000;
	123	 1	 0.0	 0.0	 0.0	 0.0	 1	    1.03921	   -4.93308	 400.0	 1	    1.06000	    0.94000;
	124	 2	 0.0	 0.0	 0.0	 0.0	 1	    0.97895	   -4.55871	 400.0	 1	    1.06000	    0.94000;
	125	 2	 0.0	 0.0	 0.0	 0.0	 1	    0.98282	   -3.11230	 400.0	 1	    1.06000	    0.94000;
	126	 2	 0.0	 0.0	 0.0	 0.0	 1	    0.98275	   -4.58752	 400.0	 1	    1.06000	    0.94000;
	127	 1	 0.0	 0.0	 0.0	 0.0	 1	    1.04364	    3.87936	 400.0	 1	    1.06000	    0.94000;
	128	 2	 0.0	 0.0	 0.0	 0.0	 1	    1.03709	   15.21994	 400.0	 1	    1.06000	    0.94000;
	129	 2	 0.0	 0.0	 0.0	 0.0	 1	    1.04349	   11.92208	 400.0	 1	    1.06000	    0.94000;
	130	 1	 0.0	 0.0	 0.0	 0.0	 1	    1.03869	    3.16731	 400.0	 1	    1.06000	    0.94000;
	131	 2	 0.0	 0.0	 0.0	 0.0	 1	    1.04494	   11.19963	 400.0	 1	    1.06000	    0.94000;
	132	 2	 0.0	 0.0	 0.0	 0.0	 1	    1.04183	   13.34010	 400.0	 1	    1.06000	    0.94000;
	133	 1	 17.68	 0.0	 0.0	 0.0	 1	    1.05657	    3.60423	 400.0	 1	    1.06000	    0.94000;
	134	 2	 0.0	 0.0	 0.0	 0.0	 1	    1.06000	    4.72196	 400.0	 1	    1.06000	    0.94000;
	135	 2	 0.0	 0.0	 0.0	 0.0	 1	    1.06000	   13.34335	 400.0	 1	    1.06000	    0.94000;
	136	 1	 0.0	 0.0	 0.0	 0.0	 1	    1.05287	   -2.97823	 400.0	 1	    1.06000	    0.94000;
	137	 2	 0.0	 0.0	 0.0	 0.0	 1	    1.06000	    5.58757	 400.0	 1	    1.06000	    0.94000;
	138	 2	 0.0	 0.0	 0.0	 0.0	 1	    1.06000	   -3.03524	 400.0	 1	    1.06000	    0.94000;
	139	 2	 0.0	 0.0	 0.0	 0.0	 1	    1.06000	   -3.03453	 400.0	 1	    1.06000	    0.94000;
	140	 2	 0.0	 0.0	 0.0	 0.0	 1	    1.05183	    6.23832	 400.0	 1	    1.06000	    0.94000;
	141	 1	 4.5	 3.37	 0.0	 0.0	 1	    1.05240	    1.02693	 400.0	 1	    1.06000	    0.94000;
	142	 2	 0.0	 0.0	 0.0	 0.0	 1	    1.06000	   10.44137	 400.0	 1	    1.06000	    0.94000;
	143	 2	 0.0	 0.0	 0.0	 0.0	 1	    1.06000	   10.46659	 400.0	 1	    1.06000	    0.94000;
	144	 1	 0.0	 0.0	 0.0	 0.0	 1	    1.05461	   14.52739	 275.0	 1	    1.06000	    0.94000;
	145	 2	 0.0	 0.0	 0.0	 0.0	 1	    1.06000	   26.97013	 275.0	 1	    1.06000	    0.94000;
	146	 2	 0.0	 0.0	 0.0	 0.0	 1	    1.04665	   14.52132	 275.0	 1	    1.06000	    0.94000;
	147	 2	 0.0	 0.0	 0.0	 0.0	 1	    1.04665	   14.52132	 275.0	 1	    1.06000	    0.94000;
	148	 2	 0.0	 0.0	 0.0	 0.0	 1	    1.04805	   14.52132	 275.0	 1	    1.06000	    0.94000;
	149	 1	 0.0	 0.0	 0.0	 0.0	 1	    1.05477	   14.56833	 275.0	 1	    1.06000	    0.94000;
	150	 2	 0.0	 0.0	 0.0	 0.0	 1	    1.04867	   14.56161	 275.0	 1	    1.06000	    0.94000;
	151	 2	 0.0	 0.0	 0.0	 0.0	 1	    1.05026	   14.56161	 275.0	 1	    1.06000	    0.94000;
	152	 2	 0.0	 0.0	 0.0	 0.0	 1	    1.04867	   14.56161	 275.0	 1	    1.06000	    0.94000;
	153	 2	 0.0	 0.0	 0.0	 0.0	 1	    1.04883	   14.56161	 275.0	 1	    1.06000	    0.94000;
	154	 2	 0.0	 0.0	 0.0	 0.0	 1	    1.03295	   14.52132	 275.0	 1	    1.06000	    0.94000;
	155	 2	 0.0	 0.0	 0.0	 0.0	 1	    1.05714	   26.10170	 275.0	 1	    1.06000	    0.94000;
	156	 2	 0.0	 0.0	 0.0	 0.0	 1	    1.01220	   14.52739	 275.0	 1	    1.06000	    0.94000;
	157	 1	 0.0	 0.0	 0.0	 0.0	 1	    1.04944	   -3.78397	 275.0	 1	    1.06000	    0.94000;
	158	 2	 0.0	 0.0	 0.0	 0.0	 1	    0.99097	   -3.78397	 275.0	 1	    1.06000	    0.94000;
	159	 2	 0.0	 0.0	 0.0	 0.0	 1	    1.06000	    8.16474	 275.0	 1	    1.06000	    0.94000;
	160	 1	 0.0	 0.0	 0.0	 0.0	 1	    1.05281	   -3.78341	 275.0	 1	    1.06000	    0.94000;
	161	 2	 0.0	 0.0	 0.0	 0.0	 1	    1.06000	    8.19442	 275.0	 1	    1.06000	    0.94000;
	162	 2	 0.0	 0.0	 0.0	 0.0	 1	    1.06000	   -3.82647	 275.0	 1	    1.06000	    0.94000;
	163	 1	 0.0	 0.0	 0.0	 0.0	 1	    1.04605	    8.64981	 400.0	 1	    1.06000	    0.94000;
	164	 2	 0.0	 0.0	 0.0	 0.0	 1	    1.02904	   19.45346	 400.0	 1	    1.06000	    0.94000;
	165	 2	 0.0	 0.0	 0.0	 0.0	 1	    1.00638	    8.65106	 400.0	 1	    1.06000	    0.94000;
	166	 2	 0.0	 0.0	 0.0	 0.0	 1	    1.03034	   20.03580	 400.0	 1	    1.06000	    0.94000;
	167	 2	 0.0	 0.0	 0.0	 0.0	 1	    1.00539	    8.65106	 400.0	 1	    1.06000	    0.94000;
	168	 1	 0.0	 0.0	 0.0	 0.0	 1	    1.05148	   15.72690	 400.0	 1	    1.06000	    0.94000;
	169	 2	 0.0	 0.0	 0.0	 0.0	 1	    1.05309	   15.73181	 400.0	 1	    1.06000	    0.94000;
	170	 2	 0.0	 0.0	 0.0	 0.0	 1	    1.06000	   24.97868	 400.0	 1	    1.06000	    0.94000;
	171	 2	 0.0	 0.0	 0.0	 0.0	 1	    1.05262	   15.73181	 400.0	 1	    1.06000	    0.94000;
	172	 2	 0.0	 0.0	 0.0	 0.0	 1	    1.05999	   24.45307	 400.0	 1	    1.06000	    0.94000;
	173	 1	 0.0	 0.0	 0.0	 0.0	 1	    1.05722	   12.00991	 400.0	 1	    1.06000	    0.94000;
	174	 2	 0.0	 0.0	 0.0	 0.0	 1	    1.06000	   22.41488	 400.0	 1	    1.06000	    0.94000;
	175	 2	 0.0	 0.0	 0.0	 0.0	 1	    1.06000	   22.42993	 400.0	 1	    1.06000	    0.94000;
	176	 2	 0.0	 0.0	 0.0	 0.0	 1	    1.06000	   11.97509	 400.0	 1	    1.06000	    0.94000;
	177	 2	 0.0	 0.0	 0.0	 0.0	 1	    1.06000	   11.97503	 400.0	 1	    1.06000	    0.94000;
	178	 2	 0.0	 0.0	 0.0	 0.0	 1	    1.06000	    0.23989	 400.0	 1	    1.06000	    0.94000;
	179	 2	 0.0	 0.0	 0.0	 0.0	 1	    1.05155	    9.25365	 400.0	 1	    1.06000	    0.94000;
	180	 2	 0.0	 0.0	 0.0	 0.0	 1	    1.06000	    0.23951	 400.0	 1	    1.06000	    0.94000;
	181	 1	 0.0	 0.0	 0.0	 0.0	 1	    1.05366	   -2.96296	 400.0	 1	    1.06000	    0.94000;
	182	 2	 0.0	 0.0	 0.0	 0.0	 1	    1.01411	   -2.96296	 400.0	 1	    1.06000	    0.94000;
	183	 1	 0.0	 0.0	 0.0	 0.0	 1	    1.05909	   12.88033	 400.0	 1	    1.06000	    0.94000;
	184	 2	 0.0	 0.0	 0.0	 0.0	 1	    1.04870	   12.87656	 400.0	 1	    1.06000	    0.94000;
	185	 2	 0.0	 0.0	 0.0	 0.0	 1	    1.04871	   12.87656	 400.0	 1	    1.06000	    0.94000;
	186	 2	 0.0	 0.0	 0.0	 0.0	 1	    1.04768	   12.87656	 400.0	 1	    1.06000	    0.94000;
	187	 2	 0.0	 0.0	 0.0	 0.0	 1	    1.05520	   22.51770	 400.0	 1	    1.06000	    0.94000;
	188	 2	 0.0	 0.0	 0.0	 0.0	 1	    0.97223	   -2.40777	 400.0	 1	    1.06000	    0.94000;
	189	 2	 0.0	 0.0	 0.0	 0.0	 1	    0.96989	   -2.40777	 400.0	 1	    1.06000	    0.94000;
	190	 2	 0.0	 0.0	 0.0	 0.0	 1	    0.96592	   -2.40777	 400.0	 1	    1.06000	    0.94000;
	191	 2	 0.0	 0.0	 0.0	 0.0	 1	    1.06000	   21.82008	 400.0	 1	    1.06000	    0.94000;
	192	 2	 0.0	 0.0	 0.0	 0.0	 1	    1.04958	   12.87656	 400.0	 1	    1.06000	    0.94000;
	193	 2	 0.0	 0.0	 0.0	 0.0	 1	    1.04840	   12.87656	 400.0	 1	    1.06000	    0.94000;
	194	 1	 125.64	 71.0	 0.0	 0.0	 1	    1.05480	   12.63164	 400.0	 1	    1.06000	    0.94000;
	195	 2	 0.0	 0.0	 0.0	 0.0	 1	    1.06000	   21.28305	 400.0	 1	    1.06000	    0.94000;
	196	 2	 0.0	 0.0	 0.0	 0.0	 1	    1.06000	   21.28305	 400.0	 1	    1.06000	    0.94000;
	197	 2	 0.0	 0.0	 0.0	 0.0	 1	    1.06000	   12.59163	 400.0	 1	    1.06000	    0.94000;
	198	 1	 0.0	 0.0	 0.0	 0.0	 1	    1.05395	    1.95770	 400.0	 1	    1.06000	    0.94000;
	199	 2	 0.0	 0.0	 0.0	 0.0	 1	    1.05919	    4.30348	 400.0	 1	    1.06000	    0.94000;
	200	 2	 0.0	 0.0	 0.0	 0.0	 1	    1.04814	   11.58630	 400.0	 1	    1.06000	    0.94000;
...
];

%% generator data
%	bus	Pg	Qg	Qmax	Qmin	Vg	mBase	status	Pmax	Pmin	Pc1	Pc2	Qc1min	Qc1max	Qc2min	Qc2max	ramp_agc	ramp_10	ramp_30	ramp_q	apf
mpc.gen = [
	2	 742.168	 116.136	 298.0	 -81.0	 1.06	 100.0	 1	 820.5	 0.0	 0.0	 0.0	 0.0	 0.0	 0.0	 0.0	 0.0	 0.0	 0.0	 0.0	 0.0; % COW
	3	 820.5	 142.72	 298.0	 -81.0	 1.06	 100.0	 1	 820.5	 0.0	 0.0	 0.0	 0.0	 0.0	 0.0	 0.0	 0.0	 0.0	 0.0	 0.0	 0.0; % COW
	4	 820.5	 131.702	 298.0	 -81.0	 1.06	 100.0	 1	 820.5	 0.0	 0.0	 0.0	 0.0	 0.0	 0.0	 0.0	 0.0	 0.0	 0.0	 0.0	 0.0; % COW
	6	 191.25	 45.691	 78.0	 -45.0	 1.06	 100.0	 1	 191.25	 0.0	 0.0	 0.0	 0.0	 0.0	 0.0	 0.0	 0.0	 0.0	 0.0	 0.0	 0.0; % COW
	7	 191.25	 45.68	 78.0	 -45.0	 1.06	 100.0	 1	 191.25	 0.0	 0.0	 0.0	 0.0	 0.0	 0.0	 0.0	 0.0	 0.0	 0.0	 0.0	 0.0; % NG
	9	 0.0	 -46.0	 81.0	 -46.0	 0.9594	 100.0	 1	 191.25	 0.0	 0.0	 0.0	 0.0	 0.0	 0.0	 0.0	 0.0	 0.0	 0.0	 0.0	 0.0; % NG
	10	 128.23	 -45.0	 78.0	 -45.0	 0.94917	 100.0	 1	 191.25	 0.0	 0.0	 0.0	 0.0	 0.0	 0.0	 0.0	 0.0	 0.0	 0.0	 0.0	 0.0; % NG
	11	 0.0	 -45.0	 78.0	 -45.0	 0.95884	 100.0	 1	 191.25	 0.0	 0.0	 0.0	 0.0	 0.0	 0.0	 0.0	 0.0	 0.0	 0.0	 0.0	 0.0; % NG
	12	 125.694	 37.107	 78.0	 -46.0	 1.06	 100.0	 1	 209.25	 0.0	 0.0	 0.0	 0.0	 0.0	 0.0	 0.0	 0.0	 0.0	 0.0	 0.0	 0.0; % NG
	13	 334.5	 -4.962	 125.0	 -70.0	 0.96025	 100.0	 1	 334.5	 0.0	 0.0	 0.0	 0.0	 0.0	 0.0	 0.0	 0.0	 0.0	 0.0	 0.0	 0.0; % NG
	15	 742.5	 132.811	 263.0	 -120.0	 1.04254	 100.0	 1	 742.5	 0.0	 0.0	 0.0	 0.0	 0.0	 0.0	 0.0	 0.0	 0.0	 0.0	 0.0	 0.0; % COW
	16	 0.0	 -9.65	 243.0	 -115.0	 1.03245	 100.0	 1	 757.5	 0.0	 0.0	 0.0	 0.0	 0.0	 0.0	 0.0	 0.0	 0.0	 0.0	 0.0	 0.0; % COW
	17	 0.0	 -14.215	 243.0	 -120.0	 1.02252	 100.0	 1	 757.5	 0.0	 0.0	 0.0	 0.0	 0.0	 0.0	 0.0	 0.0	 0.0	 0.0	 0.0	 0.0; % COW
	18	 580.125	 74.964	 263.0	 -120.0	 1.03897	 100.0	 1	 742.5	 0.0	 0.0	 0.0	 0.0	 0.0	 0.0	 0.0	 0.0	 0.0	 0.0	 0.0	 0.0; % COW
	20	 300.0	 88.082	 107.4	 -56.8	 1.06	 100.0	 1	 300.0	 0.0	 0.0	 0.0	 0.0	 0.0	 0.0	 0.0	 0.0	 0.0	 0.0	 0.0	 0.0; % COW
	21	 300.0	 88.082	 107.4	 -56.8	 1.06	 100.0	 1	 300.0	 0.0	 0.0	 0.0	 0.0	 0.0	 0.0	 0.0	 0.0	 0.0	 0.0	 0.0	 0.0; % NG
	22	 144.0	 86.81	 116.2	 -59.0	 1.06	 100.0	 1	 144.0	 0.0	 0.0	 0.0	 0.0	 0.0	 0.0	 0.0	 0.0	 0.0	 0.0	 0.0	 0.0; % COW
	24	 0.0	 -59.191	 282.71	 -180.97	 0.98145	 100.0	 1	 790.5	 0.0	 0.0	 0.0	 0.0	 0.0	 0.0	 0.0	 0.0	 0.0	 0.0	 0.0	 0.0; % COW
	25	 790.5	 112.469	 302.66	 -174.4	 1.0149	 100.0	 1	 790.5	 0.0	 0.0	 0.0	 0.0	 0.0	 0.0	 0.0	 0.0	 0.0	 0.0	 0.0	 0.0; % COW
	27	 790.5	 198.871	 282.71	 -180.97	 1.06	 100.0	 1	 790.5	 0.0	 0.0	 0.0	 0.0	 0.0	 0.0	 0.0	 0.0	 0.0	 0.0	 0.0	 0.0; % NUC
	28	 454.476	 157.87	 282.71	 -180.97	 1.06	 100.0	 1	 790.5	 0.0	 0.0	 0.0	 0.0	 0.0	 0.0	 0.0	 0.0	 0.0	 0.0	 0.0	 0.0; % COW
	30	 300.0	 -25.076	 115.0	 -115.0	 1.05991	 100.0	 1	 300.0	 0.0	 0.0	 0.0	 0.0	 0.0	 0.0	 0.0	 0.0	 0.0	 0.0	 0.0	 0.0; % NG
	31	 300.0	 -25.076	 115.0	 -115.0	 1.05991	 100.0	 1	 300.0	 0.0	 0.0	 0.0	 0.0	 0.0	 0.0	 0.0	 0.0	 0.0	 0.0	 0.0	 0.0; % NG
	32	 0.0	 -60.726	 115.0	 -115.0	 1.05013	 100.0	 1	 300.0	 0.0	 0.0	 0.0	 0.0	 0.0	 0.0	 0.0	 0.0	 0.0	 0.0	 0.0	 0.0; % NG
	33	 300.0	 -25.076	 115.0	 -115.0	 1.05991	 100.0	 1	 300.0	 0.0	 0.0	 0.0	 0.0	 0.0	 0.0	 0.0	 0.0	 0.0	 0.0	 0.0	 0.0; % COW
	34	 287.029	 -27.87	 115.0	 -115.0	 1.05926	 100.0	 1	 300.0	 0.0	 0.0	 0.0	 0.0	 0.0	 0.0	 0.0	 0.0	 0.0	 0.0	 0.0	 0.0; % NG
	35	 0.0	 0.0	 0.0	 0.0	 1.01598	 100.0	 1	 0.0	 0.0	 0.0	 0.0	 0.0	 0.0	 0.0	 0.0	 0.0	 0.0	 0.0	 0.0	 0.0; % SYNC
	37	 973.5	 144.733	 380.0	 -198.0	 1.04394	 100.0	 1	 973.5	 0.0	 0.0	 0.0	 0.0	 0.0	 0.0	 0.0	 0.0	 0.0	 0.0	 0.0	 0.0; % NUC
	38	 0.0	 -30.505	 380.0	 -198.0	 1.02357	 100.0	 1	 973.5	 0.0	 0.0	 0.0	 0.0	 0.0	 0.0	 0.0	 0.0	 0.0	 0.0	 0.0	 0.0; % COW
	39	 973.5	 147.788	 380.0	 -198.0	 1.04411	 100.0	 1	 973.5	 0.0	 0.0	 0.0	 0.0	 0.0	 0.0	 0.0	 0.0	 0.0	 0.0	 0.0	 0.0; % NUC
	41	 0.0	 205.384	 380.0	 -184.0	 1.06	 100.0	 1	 973.5	 0.0	 0.0	 0.0	 0.0	 0.0	 0.0	 0.0	 0.0	 0.0	 0.0	 0.0	 0.0; % COW
	42	 973.5	 266.056	 380.0	 -184.0	 1.06	 100.0	 1	 973.5	 0.0	 0.0	 0.0	 0.0	 0.0	 0.0	 0.0	 0.0	 0.0	 0.0	 0.0	 0.0; % COW
	43	 0.0	 210.811	 380.0	 -184.0	 1.06	 100.0	 1	 973.5	 0.0	 0.0	 0.0	 0.0	 0.0	 0.0	 0.0	 0.0	 0.0	 0.0	 0.0	 0.0; % COW
	45	 0.0	 267.478	 409.0	 -217.0	 1.06	 100.0	 1	 811.5	 0.0	 0.0	 0.0	 0.0	 0.0	 0.0	 0.0	 0.0	 0.0	 0.0	 0.0	 0.0; % NG
	46	 196.641	 260.329	 402.0	 -227.0	 1.06	 100.0	 1	 811.5	 0.0	 0.0	 0.0	 0.0	 0.0	 0.0	 0.0	 0.0	 0.0	 0.0	 0.0	 0.0; % COW
	48	 724.5	 265.562	 289.0	 -84.0	 1.06	 100.0	 1	 724.5	 0.0	 0.0	 0.0	 0.0	 0.0	 0.0	 0.0	 0.0	 0.0	 0.0	 0.0	 0.0; % COW
	49	 724.5	 212.556	 308.0	 -84.0	 1.06	 100.0	 1	 724.5	 0.0	 0.0	 0.0	 0.0	 0.0	 0.0	 0.0	 0.0	 0.0	 0.0	 0.0	 0.0; % COW
	51	 0.0	 140.307	 241.0	 -81.0	 1.06	 100.0	 1	 732.0	 0.0	 0.0	 0.0	 0.0	 0.0	 0.0	 0.0	 0.0	 0.0	 0.0	 0.0	 0.0; % COW
	52	 421.78	 166.977	 268.0	 -82.0	 1.06	 100.0	 1	 732.0	 0.0	 0.0	 0.0	 0.0	 0.0	 0.0	 0.0	 0.0	 0.0	 0.0	 0.0	 0.0; % COW
	54	 0.0	 0.0	 0.0	 0.0	 1.00116	 100.0	 1	 0.0	 0.0	 0.0	 0.0	 0.0	 0.0	 0.0	 0.0	 0.0	 0.0	 0.0	 0.0	 0.0; % SYNC
	55	 0.0	 0.0	 0.0	 0.0	 1.00116	 100.0	 1	 0.0	 0.0	 0.0	 0.0	 0.0	 0.0	 0.0	 0.0	 0.0	 0.0	 0.0	 0.0	 0.0; % SYNC
	57	 580.837	 -7.955	 286.0	 -86.0	 0.94	 100.0	 1	 735.0	 0.0	 0.0	 0.0	 0.0	 0.0	 0.0	 0.0	 0.0	 0.0	 0.0	 0.0	 0.0; % NUC
	59	 735.0	 286.0	 286.0	 -86.0	 1.01171	 100.0	 1	 735.0	 0.0	 0.0	 0.0	 0.0	 0.0	 0.0	 0.0	 0.0	 0.0	 0.0	 0.0	 0.0; % NUC
	61	 735.0	 286.0	 286.0	 -86.0	 1.00758	 100.0	 1	 735.0	 0.0	 0.0	 0.0	 0.0	 0.0	 0.0	 0.0	 0.0	 0.0	 0.0	 0.0	 0.0; % COW
	62	 0.0	 -40.046	 287.0	 -81.0	 0.94	 100.0	 1	 735.0	 0.0	 0.0	 0.0	 0.0	 0.0	 0.0	 0.0	 0.0	 0.0	 0.0	 0.0	 0.0; % COW
	64	 0.0	 -49.121	 60.0	 -60.0	 1.00029	 100.0	 1	 270.0	 0.0	 0.0	 0.0	 0.0	 0.0	 0.0	 0.0	 0.0	 0.0	 0.0	 0.0	 0.0; % NG
	65	 0.0	 -30.0	 30.0	 -30.0	 1.01954	 100.0	 1	 135.0	 0.0	 0.0	 0.0	 0.0	 0.0	 0.0	 0.0	 0.0	 0.0	 0.0	 0.0	 0.0; % NG
	67	 0.0	 149.697	 308.0	 -95.0	 1.06	 100.0	 1	 727.5	 0.0	 0.0	 0.0	 0.0	 0.0	 0.0	 0.0	 0.0	 0.0	 0.0	 0.0	 0.0; % COW
	69	 727.5	 224.747	 311.0	 -95.0	 1.06	 100.0	 1	 727.5	 0.0	 0.0	 0.0	 0.0	 0.0	 0.0	 0.0	 0.0	 0.0	 0.0	 0.0	 0.0; % COW
	71	 343.245	 58.045	 329.0	 -101.0	 1.01486	 100.0	 1	 727.5	 0.0	 0.0	 0.0	 0.0	 0.0	 0.0	 0.0	 0.0	 0.0	 0.0	 0.0	 0.0; % COW
	73	 752.414	 87.106	 203.0	 -91.0	 1.00797	 100.0	 1	 759.0	 0.0	 0.0	 0.0	 0.0	 0.0	 0.0	 0.0	 0.0	 0.0	 0.0	 0.0	 0.0; % COW
	75	 0.0	 0.0	 0.0	 0.0	 0.9912	 100.0	 1	 0.0	 0.0	 0.0	 0.0	 0.0	 0.0	 0.0	 0.0	 0.0	 0.0	 0.0	 0.0	 0.0; % SYNC
	76	 0.0	 0.0	 0.0	 0.0	 0.9912	 100.0	 1	 0.0	 0.0	 0.0	 0.0	 0.0	 0.0	 0.0	 0.0	 0.0	 0.0	 0.0	 0.0	 0.0; % SYNC
	77	 0.0	 0.0	 0.0	 0.0	 0.9912	 100.0	 1	 0.0	 0.0	 0.0	 0.0	 0.0	 0.0	 0.0	 0.0	 0.0	 0.0	 0.0	 0.0	 0.0; % SYNC
	78	 0.0	 0.0	 0.0	 0.0	 0.9912	 100.0	 1	 0.0	 0.0	 0.0	 0.0	 0.0	 0.0	 0.0	 0.0	 0.0	 0.0	 0.0	 0.0	 0.0; % SYNC
	80	 595.925	 60.763	 367.0	 -210.0	 0.99056	 100.0	 1	 906.0	 0.0	 0.0	 0.0	 0.0	 0.0	 0.0	 0.0	 0.0	 0.0	 0.0	 0.0	 0.0; % COW
	81	 906.0	 164.479	 351.0	 -208.0	 1.00062	 100.0	 1	 906.0	 0.0	 0.0	 0.0	 0.0	 0.0	 0.0	 0.0	 0.0	 0.0	 0.0	 0.0	 0.0; % NUC
	83	 910.5	 217.514	 392.0	 -206.0	 1.06	 100.0	 1	 910.5	 0.0	 0.0	 0.0	 0.0	 0.0	 0.0	 0.0	 0.0	 0.0	 0.0	 0.0	 0.0; % NUC
	84	 894.0	 210.395	 398.0	 -207.0	 1.06	 100.0	 1	 894.0	 0.0	 0.0	 0.0	 0.0	 0.0	 0.0	 0.0	 0.0	 0.0	 0.0	 0.0	 0.0; % NUC
	85	 0.0	 163.374	 367.0	 -188.0	 1.06	 100.0	 1	 900.75	 0.0	 0.0	 0.0	 0.0	 0.0	 0.0	 0.0	 0.0	 0.0	 0.0	 0.0	 0.0; % COW
	86	 670.0	 196.594	 362.0	 -187.0	 1.06	 100.0	 1	 903.75	 0.0	 0.0	 0.0	 0.0	 0.0	 0.0	 0.0	 0.0	 0.0	 0.0	 0.0	 0.0; % COW
	88	 966.0	 150.44	 312.0	 -155.0	 1.06	 100.0	 1	 966.0	 0.0	 0.0	 0.0	 0.0	 0.0	 0.0	 0.0	 0.0	 0.0	 0.0	 0.0	 0.0; % COW
	89	 925.5	 137.824	 289.0	 -204.0	 1.06	 100.0	 1	 925.5	 0.0	 0.0	 0.0	 0.0	 0.0	 0.0	 0.0	 0.0	 0.0	 0.0	 0.0	 0.0; % COW
	91	 723.0	 296.0	 296.0	 -99.0	 1.04621	 100.0	 1	 723.0	 0.0	 0.0	 0.0	 0.0	 0.0	 0.0	 0.0	 0.0	 0.0	 0.0	 0.0	 0.0; % COW
	92	 0.0	 288.042	 296.0	 -92.0	 1.05627	 100.0	 1	 723.0	 0.0	 0.0	 0.0	 0.0	 0.0	 0.0	 0.0	 0.0	 0.0	 0.0	 0.0	 0.0; % PEL
	94	 0.0	 -10.977	 138.0	 -75.0	 0.98767	 100.0	 1	 367.5	 0.0	 0.0	 0.0	 0.0	 0.0	 0.0	 0.0	 0.0	 0.0	 0.0	 0.0	 0.0; % NG
	96	 0.0	 25.319	 155.0	 -72.0	 1.06	 100.0	 1	 367.5	 0.0	 0.0	 0.0	 0.0	 0.0	 0.0	 0.0	 0.0	 0.0	 0.0	 0.0	 0.0; % NG
	97	 4.763	 25.286	 145.9	 -79.0	 1.06	 100.0	 1	 367.5	 0.0	 0.0	 0.0	 0.0	 0.0	 0.0	 0.0	 0.0	 0.0	 0.0	 0.0	 0.0; % NG
	99	 0.0	 15.366	 87.2	 -52.8	 1.05999	 100.0	 1	 216.0	 0.0	 0.0	 0.0	 0.0	 0.0	 0.0	 0.0	 0.0	 0.0	 0.0	 0.0	 0.0; % NG
	100	 216.0	 37.749	 87.2	 -52.8	 1.06	 100.0	 1	 216.0	 0.0	 0.0	 0.0	 0.0	 0.0	 0.0	 0.0	 0.0	 0.0	 0.0	 0.0	 0.0; % NG
	101	 216.0	 25.325	 87.2	 -52.8	 1.06	 100.0	 1	 216.0	 0.0	 0.0	 0.0	 0.0	 0.0	 0.0	 0.0	 0.0	 0.0	 0.0	 0.0	 0.0; % COW
	102	 0.0	 15.486	 87.2	 -52.8	 1.05999	 100.0	 1	 216.0	 0.0	 0.0	 0.0	 0.0	 0.0	 0.0	 0.0	 0.0	 0.0	 0.0	 0.0	 0.0; % NG
	103	 0.0	 21.007	 103.0	 -55.0	 1.05999	 100.0	 1	 243.0	 0.0	 0.0	 0.0	 0.0	 0.0	 0.0	 0.0	 0.0	 0.0	 0.0	 0.0	 0.0; % NG
	104	 0.0	 21.007	 103.0	 -55.0	 1.05999	 100.0	 1	 243.0	 0.0	 0.0	 0.0	 0.0	 0.0	 0.0	 0.0	 0.0	 0.0	 0.0	 0.0	 0.0; % NG
	105	 216.9	 25.75	 75.92	 -52.46	 1.06	 100.0	 1	 216.9	 0.0	 0.0	 0.0	 0.0	 0.0	 0.0	 0.0	 0.0	 0.0	 0.0	 0.0	 0.0; % COW
	106	 216.9	 25.75	 75.92	 -52.46	 1.06	 100.0	 1	 216.9	 0.0	 0.0	 0.0	 0.0	 0.0	 0.0	 0.0	 0.0	 0.0	 0.0	 0.0	 0.0; % COW
	107	 0.0	 16.113	 75.92	 -52.46	 1.05999	 100.0	 1	 216.9	 0.0	 0.0	 0.0	 0.0	 0.0	 0.0	 0.0	 0.0	 0.0	 0.0	 0.0	 0.0; % NG
	108	 346.8	 43.41	 139.82	 -78.06	 1.06	 100.0	 1	 346.8	 0.0	 0.0	 0.0	 0.0	 0.0	 0.0	 0.0	 0.0	 0.0	 0.0	 0.0	 0.0; % NG
	110	 0.0	 126.17	 286.0	 -64.0	 1.06	 100.0	 1	 727.5	 0.0	 0.0	 0.0	 0.0	 0.0	 0.0	 0.0	 0.0	 0.0	 0.0	 0.0	 0.0; % COW
	111	 727.5	 186.444	 286.0	 -64.0	 1.06	 100.0	 1	 727.5	 0.0	 0.0	 0.0	 0.0	 0.0	 0.0	 0.0	 0.0	 0.0	 0.0	 0.0	 0.0; % COW
	113	 727.5	 160.757	 286.0	 -64.0	 1.06	 100.0	 1	 727.5	 0.0	 0.0	 0.0	 0.0	 0.0	 0.0	 0.0	 0.0	 0.0	 0.0	 0.0	 0.0; % COW
	114	 0.0	 103.73	 286.0	 -64.0	 1.06	 100.0	 1	 727.5	 0.0	 0.0	 0.0	 0.0	 0.0	 0.0	 0.0	 0.0	 0.0	 0.0	 0.0	 0.0; % COW
	116	 0.0	 104.963	 128.0	 -78.0	 1.05932	 100.0	 1	 315.0	 0.0	 0.0	 0.0	 0.0	 0.0	 0.0	 0.0	 0.0	 0.0	 0.0	 0.0	 0.0; % NG
	117	 0.0	 106.208	 128.0	 -78.0	 1.05996	 100.0	 1	 315.0	 0.0	 0.0	 0.0	 0.0	 0.0	 0.0	 0.0	 0.0	 0.0	 0.0	 0.0	 0.0; % NG
	118	 0.0	 142.016	 158.0	 -84.0	 1.05999	 100.0	 1	 367.5	 0.0	 0.0	 0.0	 0.0	 0.0	 0.0	 0.0	 0.0	 0.0	 0.0	 0.0	 0.0; % NG
	120	 0.0	 27.345	 335.0	 -204.0	 1.03576	 100.0	 1	 750.0	 0.0	 0.0	 0.0	 0.0	 0.0	 0.0	 0.0	 0.0	 0.0	 0.0	 0.0	 0.0; % COW
	121	 3.05	 26.582	 335.0	 -204.0	 1.036	 100.0	 1	 750.0	 0.0	 0.0	 0.0	 0.0	 0.0	 0.0	 0.0	 0.0	 0.0	 0.0	 0.0	 0.0; % COW
	122	 0.0	 0.0	 0.0	 0.0	 0.98893	 100.0	 1	 0.0	 0.0	 0.0	 0.0	 0.0	 0.0	 0.0	 0.0	 0.0	 0.0	 0.0	 0.0	 0.0; % SYNC
	124	 0.0	 -88.0	 149.0	 -88.0	 0.97895	 100.0	 1	 340.05	 0.0	 0.0	 0.0	 0.0	 0.0	 0.0	 0.0	 0.0	 0.0	 0.0	 0.0	 0.0; % NG
	125	 47.312	 -87.0	 151.0	 -87.0	 0.98282	 100.0	 1	 340.05	 0.0	 0.0	 0.0	 0.0	 0.0	 0.0	 0.0	 0.0	 0.0	 0.0	 0.0	 0.0; % COW
	126	 0.0	 -81.0	 164.0	 -81.0	 0.98275	 100.0	 1	 340.05	 0.0	 0.0	 0.0	 0.0	 0.0	 0.0	 0.0	 0.0	 0.0	 0.0	 0.0	 0.0; % NG
	128	 750.0	 255.0	 255.0	 -79.0	 1.03709	 100.0	 1	 750.0	 0.0	 0.0	 0.0	 0.0	 0.0	 0.0	 0.0	 0.0	 0.0	 0.0	 0.0	 0.0; % COW
	129	 750.0	 255.0	 255.0	 -79.0	 1.04349	 100.0	 1	 750.0	 0.0	 0.0	 0.0	 0.0	 0.0	 0.0	 0.0	 0.0	 0.0	 0.0	 0.0	 0.0; % COW
	131	 750.0	 255.0	 255.0	 -79.0	 1.04494	 100.0	 1	 750.0	 0.0	 0.0	 0.0	 0.0	 0.0	 0.0	 0.0	 0.0	 0.0	 0.0	 0.0	 0.0; % COW
	132	 750.0	 255.0	 255.0	 -18.0	 1.04183	 100.0	 1	 750.0	 0.0	 0.0	 0.0	 0.0	 0.0	 0.0	 0.0	 0.0	 0.0	 0.0	 0.0	 0.0; % COW
	134	 91.484	 216.099	 270.0	 -86.0	 1.06	 100.0	 1	 747.0	 0.0	 0.0	 0.0	 0.0	 0.0	 0.0	 0.0	 0.0	 0.0	 0.0	 0.0	 0.0; % COW
	135	 747.0	 255.1	 270.0	 -86.0	 1.06	 100.0	 1	 747.0	 0.0	 0.0	 0.0	 0.0	 0.0	 0.0	 0.0	 0.0	 0.0	 0.0	 0.0	 0.0; % COW
	137	 228.0	 75.23	 88.0	 -50.0	 1.06	 100.0	 1	 228.0	 0.0	 0.0	 0.0	 0.0	 0.0	 0.0	 0.0	 0.0	 0.0	 0.0	 0.0	 0.0; % NG
	138	 0.0	 83.83	 88.0	 -50.0	 1.06	 100.0	 1	 228.0	 0.0	 0.0	 0.0	 0.0	 0.0	 0.0	 0.0	 0.0	 0.0	 0.0	 0.0	 0.0; % NG
	139	 0.0	 63.45	 88.0	 -50.0	 1.06	 100.0	 1	 228.0	 0.0	 0.0	 0.0	 0.0	 0.0	 0.0	 0.0	 0.0	 0.0	 0.0	 0.0	 0.0; % NG
	140	 388.5	 114.0	 114.0	 -88.0	 1.05183	 100.0	 1	 388.5	 0.0	 0.0	 0.0	 0.0	 0.0	 0.0	 0.0	 0.0	 0.0	 0.0	 0.0	 0.0; % NG
	142	 892.5	 355.159	 386.0	 -211.0	 1.06	 100.0	 1	 892.5	 0.0	 0.0	 0.0	 0.0	 0.0	 0.0	 0.0	 0.0	 0.0	 0.0	 0.0	 0.0; % COW
	143	 892.5	 355.158	 385.0	 -204.0	 1.06	 100.0	 1	 892.5	 0.0	 0.0	 0.0	 0.0	 0.0	 0.0	 0.0	 0.0	 0.0	 0.0	 0.0	 0.0; % COW
	145	 230.25	 41.617	 72.0	 -48.0	 1.06	 100.0	 1	 230.25	 0.0	 0.0	 0.0	 0.0	 0.0	 0.0	 0.0	 0.0	 0.0	 0.0	 0.0	 0.0; % COW
	146	 0.0	 8.999	 72.0	 -48.0	 1.04665	 100.0	 1	 230.25	 0.0	 0.0	 0.0	 0.0	 0.0	 0.0	 0.0	 0.0	 0.0	 0.0	 0.0	 0.0; % NG
	147	 0.0	 8.999	 72.0	 -48.0	 1.04665	 100.0	 1	 230.25	 0.0	 0.0	 0.0	 0.0	 0.0	 0.0	 0.0	 0.0	 0.0	 0.0	 0.0	 0.0; % NG
	148	 0.0	 8.622	 72.0	 -48.0	 1.04805	 100.0	 1	 230.25	 0.0	 0.0	 0.0	 0.0	 0.0	 0.0	 0.0	 0.0	 0.0	 0.0	 0.0	 0.0; % NG
	150	 0.0	 9.614	 72.0	 -48.0	 1.04867	 100.0	 1	 230.25	 0.0	 0.0	 0.0	 0.0	 0.0	 0.0	 0.0	 0.0	 0.0	 0.0	 0.0	 0.0; % NG
	151	 0.0	 9.164	 72.0	 -48.0	 1.05026	 100.0	 1	 230.25	 0.0	 0.0	 0.0	 0.0	 0.0	 0.0	 0.0	 0.0	 0.0	 0.0	 0.0	 0.0; % NG
	152	 0.0	 9.614	 72.0	 -48.0	 1.04867	 100.0	 1	 230.25	 0.0	 0.0	 0.0	 0.0	 0.0	 0.0	 0.0	 0.0	 0.0	 0.0	 0.0	 0.0; % NG
	153	 0.0	 9.617	 72.0	 -48.0	 1.04883	 100.0	 1	 230.25	 0.0	 0.0	 0.0	 0.0	 0.0	 0.0	 0.0	 0.0	 0.0	 0.0	 0.0	 0.0; % NG
	154	 0.0	 18.119	 192.0	 -114.0	 1.03295	 100.0	 1	 485.25	 0.0	 0.0	 0.0	 0.0	 0.0	 0.0	 0.0	 0.0	 0.0	 0.0	 0.0	 0.0; % COW
	155	 485.25	 120.738	 192.0	 -114.0	 1.05714	 100.0	 1	 485.25	 0.0	 0.0	 0.0	 0.0	 0.0	 0.0	 0.0	 0.0	 0.0	 0.0	 0.0	 0.0; % COW
	156	 0.0	 0.0	 0.0	 0.0	 1.0122	 100.0	 1	 0.0	 0.0	 0.0	 0.0	 0.0	 0.0	 0.0	 0.0	 0.0	 0.0	 0.0	 0.0	 0.0; % SYNC
	158	 0.0	 0.0	 0.0	 0.0	 0.99097	 100.0	 1	 0.0	 0.0	 0.0	 0.0	 0.0	 0.0	 0.0	 0.0	 0.0	 0.0	 0.0	 0.0	 0.0; % SYNC
	159	 525.0	 93.911	 175.0	 -60.0	 1.06	 100.0	 1	 525.0	 0.0	 0.0	 0.0	 0.0	 0.0	 0.0	 0.0	 0.0	 0.0	 0.0	 0.0	 0.0; % NG
	161	 525.0	 163.257	 175.0	 -60.0	 1.06	 100.0	 1	 525.0	 0.0	 0.0	 0.0	 0.0	 0.0	 0.0	 0.0	 0.0	 0.0	 0.0	 0.0	 0.0; % NG
	162	 0.0	 43.019	 190.0	 -56.4	 1.06	 100.0	 1	 525.0	 0.0	 0.0	 0.0	 0.0	 0.0	 0.0	 0.0	 0.0	 0.0	 0.0	 0.0	 0.0; % NG
	164	 724.5	 135.06	 287.0	 -110.0	 1.02904	 100.0	 1	 724.5	 0.0	 0.0	 0.0	 0.0	 0.0	 0.0	 0.0	 0.0	 0.0	 0.0	 0.0	 0.0; % NUC
	165	 0.0	 -2.957	 252.0	 -107.0	 1.00638	 100.0	 1	 754.5	 0.0	 0.0	 0.0	 0.0	 0.0	 0.0	 0.0	 0.0	 0.0	 0.0	 0.0	 0.0; % NG
	166	 754.5	 148.695	 252.0	 -107.0	 1.03034	 100.0	 1	 754.5	 0.0	 0.0	 0.0	 0.0	 0.0	 0.0	 0.0	 0.0	 0.0	 0.0	 0.0	 0.0; % COW
	167	 0.0	 -3.032	 287.0	 -110.0	 1.00539	 100.0	 1	 724.5	 0.0	 0.0	 0.0	 0.0	 0.0	 0.0	 0.0	 0.0	 0.0	 0.0	 0.0	 0.0; % COW
	169	 0.0	 -9.931	 182.0	 -85.0	 1.05309	 100.0	 1	 367.5	 0.0	 0.0	 0.0	 0.0	 0.0	 0.0	 0.0	 0.0	 0.0	 0.0	 0.0	 0.0; % NG
	170	 367.5	 26.902	 179.0	 -83.0	 1.06	 100.0	 1	 367.5	 0.0	 0.0	 0.0	 0.0	 0.0	 0.0	 0.0	 0.0	 0.0	 0.0	 0.0	 0.0; % COW
	171	 0.0	 -10.354	 176.0	 -83.0	 1.05262	 100.0	 1	 367.5	 0.0	 0.0	 0.0	 0.0	 0.0	 0.0	 0.0	 0.0	 0.0	 0.0	 0.0	 0.0; % COW
	172	 367.5	 36.562	 178.0	 -80.0	 1.05999	 100.0	 1	 367.5	 0.0	 0.0	 0.0	 0.0	 0.0	 0.0	 0.0	 0.0	 0.0	 0.0	 0.0	 0.0; % NG
	174	 517.5	 182.232	 220.0	 -124.0	 1.06	 100.0	 1	 517.5	 0.0	 0.0	 0.0	 0.0	 0.0	 0.0	 0.0	 0.0	 0.0	 0.0	 0.0	 0.0; % NG
	175	 517.5	 182.393	 220.0	 -124.0	 1.06	 100.0	 1	 517.5	 0.0	 0.0	 0.0	 0.0	 0.0	 0.0	 0.0	 0.0	 0.0	 0.0	 0.0	 0.0; % COW
	176	 0.0	 141.371	 220.0	 -124.0	 1.06	 100.0	 1	 517.5	 0.0	 0.0	 0.0	 0.0	 0.0	 0.0	 0.0	 0.0	 0.0	 0.0	 0.0	 0.0; % COW
	177	 0.0	 141.634	 221.0	 -124.0	 1.06	 100.0	 1	 517.5	 0.0	 0.0	 0.0	 0.0	 0.0	 0.0	 0.0	 0.0	 0.0	 0.0	 0.0	 0.0; % COW
	178	 0.0	 89.145	 91.0	 -62.0	 1.06	 100.0	 1	 349.5	 0.0	 0.0	 0.0	 0.0	 0.0	 0.0	 0.0	 0.0	 0.0	 0.0	 0.0	 0.0; % NG
	179	 349.5	 91.0	 91.0	 -62.0	 1.05155	 100.0	 1	 349.5	 0.0	 0.0	 0.0	 0.0	 0.0	 0.0	 0.0	 0.0	 0.0	 0.0	 0.0	 0.0; % COW
	180	 0.0	 100.27	 119.0	 -73.0	 1.06	 100.0	 1	 426.0	 0.0	 0.0	 0.0	 0.0	 0.0	 0.0	 0.0	 0.0	 0.0	 0.0	 0.0	 0.0; % NG
	182	 0.0	 0.0	 0.0	 0.0	 1.01411	 100.0	 1	 0.0	 0.0	 0.0	 0.0	 0.0	 0.0	 0.0	 0.0	 0.0	 0.0	 0.0	 0.0	 0.0; % SYNC
	184	 0.0	 5.547	 103.0	 -55.0	 1.0487	 100.0	 1	 253.5	 0.0	 0.0	 0.0	 0.0	 0.0	 0.0	 0.0	 0.0	 0.0	 0.0	 0.0	 0.0; % NG
	185	 0.0	 5.547	 96.0	 -59.0	 1.04871	 100.0	 1	 253.5	 0.0	 0.0	 0.0	 0.0	 0.0	 0.0	 0.0	 0.0	 0.0	 0.0	 0.0	 0.0; % NG
	186	 0.0	 5.898	 94.0	 -60.0	 1.04768	 100.0	 1	 253.5	 0.0	 0.0	 0.0	 0.0	 0.0	 0.0	 0.0	 0.0	 0.0	 0.0	 0.0	 0.0; % NG
	187	 393.0	 77.975	 164.0	 -91.0	 1.0552	 100.0	 1	 393.0	 0.0	 0.0	 0.0	 0.0	 0.0	 0.0	 0.0	 0.0	 0.0	 0.0	 0.0	 0.0; % COW
	188	 0.0	 -46.215	 94.0	 -61.0	 0.97223	 100.0	 1	 345.0	 0.0	 0.0	 0.0	 0.0	 0.0	 0.0	 0.0	 0.0	 0.0	 0.0	 0.0	 0.0; % NG
	189	 0.0	 -45.991	 103.0	 -57.0	 0.96989	 100.0	 1	 345.0	 0.0	 0.0	 0.0	 0.0	 0.0	 0.0	 0.0	 0.0	 0.0	 0.0	 0.0	 0.0; % NG
	190	 0.0	 -51.013	 154.0	 -81.0	 0.96592	 100.0	 1	 435.0	 0.0	 0.0	 0.0	 0.0	 0.0	 0.0	 0.0	 0.0	 0.0	 0.0	 0.0	 0.0; % NG
	191	 261.0	 37.37	 94.0	 -57.0	 1.06	 100.0	 1	 261.0	 0.0	 0.0	 0.0	 0.0	 0.0	 0.0	 0.0	 0.0	 0.0	 0.0	 0.0	 0.0; % NG
	192	 0.0	 5.472	 94.0	 -57.0	 1.04958	 100.0	 1	 261.0	 0.0	 0.0	 0.0	 0.0	 0.0	 0.0	 0.0	 0.0	 0.0	 0.0	 0.0	 0.0; % NG
	193	 0.0	 5.587	 107.0	 -57.0	 1.0484	 100.0	 1	 252.0	 0.0	 0.0	 0.0	 0.0	 0.0	 0.0	 0.0	 0.0	 0.0	 0.0	 0.0	 0.0; % COW
	195	 373.5	 119.552	 225.6	 -123.0	 1.06	 100.0	 1	 373.5	 0.0	 0.0	 0.0	 0.0	 0.0	 0.0	 0.0	 0.0	 0.0	 0.0	 0.0	 0.0; % NG
	196	 373.5	 119.552	 225.6	 -123.0	 1.06	 100.0	 1	 373.5	 0.0	 0.0	 0.0	 0.0	 0.0	 0.0	 0.0	 0.0	 0.0	 0.0	 0.0	 0.0; % NG
	197	 0.0	 98.03	 229.4	 -117.6	 1.06	 100.0	 1	 375.0	 0.0	 0.0	 0.0	 0.0	 0.0	 0.0	 0.0	 0.0	 0.0	 0.0	 0.0	 0.0; % NG
	199	 100.254	 134.289	 134.29	 -95.64	 1.05919	 100.0	 1	 400.05	 0.0	 0.0	 0.0	 0.0	 0.0	 0.0	 0.0	 0.0	 0.0	 0.0	 0.0	 0.0; % NG
	200	 400.05	 134.29	 134.29	 -95.64	 1.04814	 100.0	 1	 400.05	 0.0	 0.0	 0.0	 0.0	 0.0	 0.0	 0.0	 0.0	 0.0	 0.0	 0.0	 0.0; % COW
	201	 0.0	 145.92	 162.75	 -87.76	 1.06	 100.0	 1	 399.9	 0.0	 0.0	 0.0	 0.0	 0.0	 0.0	 0.0	 0.0	 0.0	 0.0	 0.0	 0.0; % NG
	203	 0.0	 113.995	 138.0	 -93.0	 1.06	 100.0	 1	 406.0	 0.0	 0.0	 0.0	 0.0	 0.0	 0.0	 0.0	 0.0	 0.0	 0.0	 0.0	 0.0; % NG
	204	 406.0	 138.0	 138.0	 -93.0	 1.05535	 100.0	 1	 406.0	 0.0	 0.0	 0.0	 0.0	 0.0	 0.0	 0.0	 0.0	 0.0	 0.0	 0.0	 0.0; % COW
	205	 406.0	 149.004	 155.0	 -85.0	 1.06	 100.0	 1	 406.0	 0.0	 0.0	 0.0	 0.0	 0.0	 0.0	 0.0	 0.0	 0.0	 0.0	 0.0	 0.0; % COW
	206	 450.277	 59.058	 209.0	 -145.2	 1.06	 100.0	 1	 633.0	 0.0	 0.0	 0.0	 0.0	 0.0	 0.0	 0.0	 0.0	 0.0	 0.0	 0.0	 0.0; % NG
	208	 206.243	 -55.019	 298.72	 -188.66	 0.96345	 100.0	 1	 780.0	 0.0	 0.0	 0.0	 0.0	 0.0	 0.0	 0.0	 0.0	 0.0	 0.0	 0.0	 0.0; % COW
	209	 0.0	 -0.39	 16.9	 -9.8	 1.03132	 100.0	 1	 48.45	 0.0	 0.0	 0.0	 0.0	 0.0	 0.0	 0.0	 0.0	 0.0	 0.0	 0.0	 0.0; % NG
	211	 385.5	 61.911	 189.9	 -145.1	 1.06	 100.0	 1	 385.5	 0.0	 0.0	 0.0	 0.0	 0.0	 0.0	 0.0	 0.0	 0.0	 0.0	 0.0	 0.0; % COW
	212	 0.0	 37.157	 196.2	 -143.8	 1.06	 100.0	 1	 385.5	 0.0	 0.0	 0.0	 0.0	 0.0	 0.0	 0.0	 0.0	 0.0	 0.0	 0.0	 0.0; % COW
	213	 0.0	 51.631	 313.0	 -183.5	 1.06	 100.0	 1	 549.0	 0.0	 0.0	 0.0	 0.0	 0.0	 0.0	 0.0	 0.0	 0.0	 0.0	 0.0	 0.0; % NG
	215	 104.585	 54.532	 166.0	 -93.0	 1.06	 100.0	 1	 409.5	 0.0	 0.0	 0.0	 0.0	 0.0	 0.0	 0.0	 0.0	 0.0	 0.0	 0.0	 0.0; % NG
	216	 0.0	 54.027	 155.0	 -94.0	 1.06	 100.0	 1	 409.5	 0.0	 0.0	 0.0	 0.0	 0.0	 0.0	 0.0	 0.0	 0.0	 0.0	 0.0	 0.0; % NG
	217	 0.0	 54.027	 159.0	 -89.0	 1.06	 100.0	 1	 388.5	 0.0	 0.0	 0.0	 0.0	 0.0	 0.0	 0.0	 0.0	 0.0	 0.0	 0.0	 0.0; % NG
	219	 0.0	 76.746	 167.0	 -106.0	 1.04751	 100.0	 1	 371.5	 0.0	 0.0	 0.0	 0.0	 0.0	 0.0	 0.0	 0.0	 0.0	 0.0	 0.0	 0.0; % NG
	220	 371.5	 129.661	 167.0	 -106.0	 1.05997	 100.0	 1	 371.5	 0.0	 0.0	 0.0	 0.0	 0.0	 0.0	 0.0	 0.0	 0.0	 0.0	 0.0	 0.0; % COW
	221	 0.0	 76.746	 196.0	 -94.0	 1.04751	 100.0	 1	 371.5	 0.0	 0.0	 0.0	 0.0	 0.0	 0.0	 0.0	 0.0	 0.0	 0.0	 0.0	 0.0; % NG
	222	 592.5	 74.017	 220.0	 -136.73	 1.0326	 100.0	 1	 592.5	 0.0	 0.0	 0.0	 0.0	 0.0	 0.0	 0.0	 0.0	 0.0	 0.0	 0.0	 0.0; % NG
	224	 0.0	 40.763	 248.68	 -139.23	 1.06	 100.0	 1	 550.5	 0.0	 0.0	 0.0	 0.0	 0.0	 0.0	 0.0	 0.0	 0.0	 0.0	 0.0	 0.0; % NG
	225	 0.0	 40.763	 248.68	 -139.23	 1.06	 100.0	 1	 550.5	 0.0	 0.0	 0.0	 0.0	 0.0	 0.0	 0.0	 0.0	 0.0	 0.0	 0.0	 0.0; % COW
	226	 550.5	 84.909	 248.68	 -139.23	 1.06	 100.0	 1	 550.5	 0.0	 0.0	 0.0	 0.0	 0.0	 0.0	 0.0	 0.0	 0.0	 0.0	 0.0	 0.0; % COW
	228	 637.5	 89.431	 250.0	 -138.0	 1.02097	 100.0	 1	 637.5	 0.0	 0.0	 0.0	 0.0	 0.0	 0.0	 0.0	 0.0	 0.0	 0.0	 0.0	 0.0; % NG
	229	 637.5	 89.431	 250.0	 -138.0	 1.02097	 100.0	 1	 637.5	 0.0	 0.0	 0.0	 0.0	 0.0	 0.0	 0.0	 0.0	 0.0	 0.0	 0.0	 0.0; % COW
	231	 600.0	 51.384	 250.0	 -140.0	 1.06	 100.0	 1	 600.0	 0.0	 0.0	 0.0	 0.0	 0.0	 0.0	 0.0	 0.0	 0.0	 0.0	 0.0	 0.0; % COW
	232	 600.0	 51.384	 250.0	 -140.0	 1.06	 100.0	 1	 600.0	 0.0	 0.0	 0.0	 0.0	 0.0	 0.0	 0.0	 0.0	 0.0	 0.0	 0.0	 0.0; % COW
	234	 0.0	 1.414	 25.0	 -14.0	 1.03347	 100.0	 1	 66.0	 0.0	 0.0	 0.0	 0.0	 0.0	 0.0	 0.0	 0.0	 0.0	 0.0	 0.0	 0.0; % PEL
	235	 0.0	 1.414	 25.0	 -14.0	 1.03347	 100.0	 1	 66.0	 0.0	 0.0	 0.0	 0.0	 0.0	 0.0	 0.0	 0.0	 0.0	 0.0	 0.0	 0.0; % PEL
	236	 0.0	 1.414	 25.0	 -14.0	 1.03347	 100.0	 1	 67.5	 0.0	 0.0	 0.0	 0.0	 0.0	 0.0	 0.0	 0.0	 0.0	 0.0	 0.0	 0.0; % NG
	237	 0.0	 1.414	 25.0	 -14.0	 1.03347	 100.0	 1	 67.5	 0.0	 0.0	 0.0	 0.0	 0.0	 0.0	 0.0	 0.0	 0.0	 0.0	 0.0	 0.0; % PEL
	238	 0.0	 1.414	 25.0	 -14.0	 1.03347	 100.0	 1	 67.5	 0.0	 0.0	 0.0	 0.0	 0.0	 0.0	 0.0	 0.0	 0.0	 0.0	 0.0	 0.0; % PEL
	239	 0.0	 1.414	 25.0	 -14.0	 1.03347	 100.0	 1	 67.5	 0.0	 0.0	 0.0	 0.0	 0.0	 0.0	 0.0	 0.0	 0.0	 0.0	 0.0	 0.0; % NG
	241	 0.0	 45.123	 158.63	 -90.39	 1.06	 100.0	 1	 363.75	 0.0	 0.0	 0.0	 0.0	 0.0	 0.0	 0.0	 0.0	 0.0	 0.0	 0.0	 0.0; % NG
	242	 363.75	 69.975	 158.63	 -90.39	 1.06	 100.0	 1	 363.75	 0.0	 0.0	 0.0	 0.0	 0.0	 0.0	 0.0	 0.0	 0.0	 0.0	 0.0	 0.0; % NG
	243	 0.0	 11.841	 74.57	 -37.8	 1.06	 100.0	 1	 175.5	 0.0	 0.0	 0.0	 0.0	 0.0	 0.0	 0.0	 0.0	 0.0	 0.0	 0.0	 0.0; % NG
	244	 0.0	 11.841	 74.57	 -37.8	 1.06	 100.0	 1	 175.5	 0.0	 0.0	 0.0	 0.0	 0.0	 0.0	 0.0	 0.0	 0.0	 0.0	 0.0	 0.0; % NG
	249	 93.614	 15.101	 194.0	 -91.0	 1.04867	 100.0	 1	 342.0	 0.0	 0.0	 0.0	 0.0	 0.0	 0.0	 0.0	 0.0	 0.0	 0.0	 0.0	 0.0; % NG
	251	 363.0	 23.939	 180.0	 -86.0	 1.05606	 100.0	 1	 363.0	 0.0	 0.0	 0.0	 0.0	 0.0	 0.0	 0.0	 0.0	 0.0	 0.0	 0.0	 0.0; % NG
	253	 0.0	 -2.909	 41.0	 -21.0	 1.03163	 100.0	 1	 90.0	 0.0	 0.0	 0.0	 0.0	 0.0	 0.0	 0.0	 0.0	 0.0	 0.0	 0.0	 0.0; % NG
	254	 253.5	 28.991	 100.0	 -57.0	 1.0478	 100.0	 1	 253.5	 0.0	 0.0	 0.0	 0.0	 0.0	 0.0	 0.0	 0.0	 0.0	 0.0	 0.0	 0.0; % COW
	256	 0.0	 4.649	 28.0	 -15.0	 1.0573	 100.0	 1	 55.5	 0.0	 0.0	 0.0	 0.0	 0.0	 0.0	 0.0	 0.0	 0.0	 0.0	 0.0	 0.0; % PEL
	257	 0.0	 4.545	 24.0	 -16.0	 1.05705	 100.0	 1	 55.5	 0.0	 0.0	 0.0	 0.0	 0.0	 0.0	 0.0	 0.0	 0.0	 0.0	 0.0	 0.0; % NG
	258	 55.5	 7.259	 24.0	 -16.0	 1.06	 100.0	 1	 55.5	 0.0	 0.0	 0.0	 0.0	 0.0	 0.0	 0.0	 0.0	 0.0	 0.0	 0.0	 0.0; % NG
	259	 0.0	 6.18	 34.0	 -17.0	 1.05652	 100.0	 1	 66.0	 0.0	 0.0	 0.0	 0.0	 0.0	 0.0	 0.0	 0.0	 0.0	 0.0	 0.0	 0.0; % PEL
	261	 463.741	 120.014	 331.5	 -147.7	 1.04011	 100.0	 1	 630.0	 0.0	 0.0	 0.0	 0.0	 0.0	 0.0	 0.0	 0.0	 0.0	 0.0	 0.0	 0.0; % NUC
	263	 105.0	 35.875	 44.4	 -27.9	 1.06	 100.0	 1	 105.0	 0.0	 0.0	 0.0	 0.0	 0.0	 0.0	 0.0	 0.0	 0.0	 0.0	 0.0	 0.0; % NG
	264	 105.0	 35.038	 44.4	 -27.9	 1.06	 100.0	 1	 105.0	 0.0	 0.0	 0.0	 0.0	 0.0	 0.0	 0.0	 0.0	 0.0	 0.0	 0.0	 0.0; % NG
	265	 105.0	 35.036	 49.0	 -23.5	 1.06	 100.0	 1	 105.0	 0.0	 0.0	 0.0	 0.0	 0.0	 0.0	 0.0	 0.0	 0.0	 0.0	 0.0	 0.0; % NG
	270	 585.0	 211.757	 273.4	 -140.7	 1.06	 100.0	 1	 585.0	 0.0	 0.0	 0.0	 0.0	 0.0	 0.0	 0.0	 0.0	 0.0	 0.0	 0.0	 0.0; % COW
	272	 64.107	 17.391	 70.0	 -51.0	 1.06	 100.0	 1	 255.0	 0.0	 0.0	 0.0	 0.0	 0.0	 0.0	 0.0	 0.0	 0.0	 0.0	 0.0	 0.0; % NG
	273	 0.0	 12.103	 33.0	 -23.0	 1.06	 100.0	 1	 112.5	 0.0	 0.0	 0.0	 0.0	 0.0	 0.0	 0.0	 0.0	 0.0	 0.0	 0.0	 0.0; % NG
	275	 181.5	 29.157	 39.8	 -39.8	 1.06	 100.0	 1	 181.5	 0.0	 0.0	 0.0	 0.0	 0.0	 0.0	 0.0	 0.0	 0.0	 0.0	 0.0	 0.0; % COW
	276	 181.5	 29.157	 39.8	 -39.8	 1.06	 100.0	 1	 181.5	 0.0	 0.0	 0.0	 0.0	 0.0	 0.0	 0.0	 0.0	 0.0	 0.0	 0.0	 0.0; % NG
...
];

%% generator cost data
%	2	startup	shutdown	n	c(n-1)	...	c0
mpc.gencost = [
	2	 0.0	 0.0	 3	   0.000000	   0.898482	   0.000000; % COW
	2	 0.0	 0.0	 3	   0.000000	   0.585347	   0.000000; % COW
	2	 0.0	 0.0	 3	   0.000000	   0.607890	   0.000000; % COW
	2	 0.0	 0.0	 3	   0.000000	   0.674304	   0.000000; % COW
	2	 0.0	 0.0	 3	   0.000000	   0.903383	   0.000000; % NG
	2	 0.0	 0.0	 3	   0.000000	   1.215509	   0.000000; % NG
	2	 0.0	 0.0	 3	   0.000000	   0.780735	   0.000000; % NG
	2	 0.0	 0.0	 3	   0.000000	   1.098166	   0.000000; % NG
	2	 0.0	 0.0	 3	   0.000000	   1.012987	   0.000000; % NG
	2	 0.0	 0.0	 3	   0.000000	   0.376585	   0.000000; % NG
	2	 0.0	 0.0	 3	   0.000000	   0.758006	   0.000000; % COW
	2	 0.0	 0.0	 3	   0.000000	   1.058542	   0.000000; % COW
	2	 0.0	 0.0	 3	   0.000000	   0.904568	   0.000000; % COW
	2	 0.0	 0.0	 3	   0.000000	   0.823837	   0.000000; % COW
	2	 0.0	 0.0	 3	   0.000000	   0.339756	   0.000000; % COW
	2	 0.0	 0.0	 3	   0.000000	   0.915036	   0.000000; % NG
	2	 0.0	 0.0	 3	   0.000000	   0.812762	   0.000000; % COW
	2	 0.0	 0.0	 3	   0.000000	   0.761030	   0.000000; % COW
	2	 0.0	 0.0	 3	   0.000000	   0.498111	   0.000000; % COW
	2	 0.0	 0.0	 3	   0.000000	   0.217329	   0.000000; % NUC
	2	 0.0	 0.0	 3	   0.000000	   0.780291	   0.000000; % COW
	2	 0.0	 0.0	 3	   0.000000	   0.821867	   0.000000; % NG
	2	 0.0	 0.0	 3	   0.000000	   1.004045	   0.000000; % NG
	2	 0.0	 0.0	 3	   0.000000	   1.311846	   0.000000; % NG
	2	 0.0	 0.0	 3	   0.000000	   0.064020	   0.000000; % COW
	2	 0.0	 0.0	 3	   0.000000	   1.032391	   0.000000; % NG
	2	 0.0	 0.0	 3	   0.000000	   0.000000	   0.000000; % SYNC
	2	 0.0	 0.0	 3	   0.000000	   0.202425	   0.000000; % NUC
	2	 0.0	 0.0	 3	   0.000000	   0.880421	   0.000000; % COW
	2	 0.0	 0.0	 3	   0.000000	   0.176252	   0.000000; % NUC
	2	 0.0	 0.0	 3	   0.000000	   1.000682	   0.000000; % COW
	2	 0.0	 0.0	 3	   0.000000	   0.681513	   0.000000; % COW
	2	 0.0	 0.0	 3	   0.000000	   0.959303	   0.000000; % COW
	2	 0.0	 0.0	 3	   0.000000	   1.156924	   0.000000; % NG
	2	 0.0	 0.0	 3	   0.000000	   0.807262	   0.000000; % COW
	2	 0.0	 0.0	 3	   0.000000	   0.704894	   0.000000; % COW
	2	 0.0	 0.0	 3	   0.000000	   0.826776	   0.000000; % COW
	2	 0.0	 0.0	 3	   0.000000	   0.885767	   0.000000; % COW
	2	 0.0	 0.0	 3	   0.000000	   0.651064	   0.000000; % COW
	2	 0.0	 0.0	 3	   0.000000	   0.000000	   0.000000; % SYNC
	2	 0.0	 0.0	 3	   0.000000	   0.000000	   0.000000; % SYNC
	2	 0.0	 0.0	 3	   0.000000	   0.235151	   0.000000; % NUC
	2	 0.0	 0.0	 3	   0.000000	   0.205047	   0.000000; % NUC
	2	 0.0	 0.0	 3	   0.000000	   0.459256	   0.000000; % COW
	2	 0.0	 0.0	 3	   0.000000	   0.373840	   0.000000; % COW
	2	 0.0	 0.0	 3	   0.000000	   1.094623	   0.000000; % NG
	2	 0.0	 0.0	 3	   0.000000	   1.124969	   0.000000; % NG
	2	 0.0	 0.0	 3	   0.000000	   0.898978	   0.000000; % COW
	2	 0.0	 0.0	 3	   0.000000	   0.932138	   0.000000; % COW
	2	 0.0	 0.0	 3	   0.000000	   0.937902	   0.000000; % COW
	2	 0.0	 0.0	 3	   0.000000	   0.685287	   0.000000; % COW
	2	 0.0	 0.0	 3	   0.000000	   0.000000	   0.000000; % SYNC
	2	 0.0	 0.0	 3	   0.000000	   0.000000	   0.000000; % SYNC
	2	 0.0	 0.0	 3	   0.000000	   0.000000	   0.000000; % SYNC
	2	 0.0	 0.0	 3	   0.000000	   0.000000	   0.000000; % SYNC
	2	 0.0	 0.0	 3	   0.000000	   0.546105	   0.000000; % COW
	2	 0.0	 0.0	 3	   0.000000	   0.205953	   0.000000; % NUC
	2	 0.0	 0.0	 3	   0.000000	   0.239746	   0.000000; % NUC
	2	 0.0	 0.0	 3	   0.000000	   0.184243	   0.000000; % NUC
	2	 0.0	 0.0	 3	   0.000000	   0.969214	   0.000000; % COW
	2	 0.0	 0.0	 3	   0.000000	   0.744628	   0.000000; % COW
	2	 0.0	 0.0	 3	   0.000000	   0.622648	   0.000000; % COW
	2	 0.0	 0.0	 3	   0.000000	   0.682068	   0.000000; % COW
	2	 0.0	 0.0	 3	   0.000000	   0.922981	   0.000000; % COW
	2	 0.0	 0.0	 3	   0.000000	   6.806096	   0.000000; % PEL
	2	 0.0	 0.0	 3	   0.000000	   1.341472	   0.000000; % NG
	2	 0.0	 0.0	 3	   0.000000	   0.844213	   0.000000; % NG
	2	 0.0	 0.0	 3	   0.000000	   0.824209	   0.000000; % NG
	2	 0.0	 0.0	 3	   0.000000	   1.278663	   0.000000; % NG
	2	 0.0	 0.0	 3	   0.000000	   0.795886	   0.000000; % NG
	2	 0.0	 0.0	 3	   0.000000	   0.530394	   0.000000; % COW
	2	 0.0	 0.0	 3	   0.000000	   1.080409	   0.000000; % NG
	2	 0.0	 0.0	 3	   0.000000	   1.315686	   0.000000; % NG
	2	 0.0	 0.0	 3	   0.000000	   1.005280	   0.000000; % NG
	2	 0.0	 0.0	 3	   0.000000	   0.586682	   0.000000; % COW
	2	 0.0	 0.0	 3	   0.000000	   0.717950	   0.000000; % COW
	2	 0.0	 0.0	 3	   0.000000	   1.510823	   0.000000; % NG
	2	 0.0	 0.0	 3	   0.000000	   0.820835	   0.000000; % NG
	2	 0.0	 0.0	 3	   0.000000	   0.867804	   0.000000; % COW
	2	 0.0	 0.0	 3	   0.000000	   0.421915	   0.000000; % COW
	2	 0.0	 0.0	 3	   0.000000	   0.701246	   0.000000; % COW
	2	 0.0	 0.0	 3	   0.000000	   0.969754	   0.000000; % COW
	2	 0.0	 0.0	 3	   0.000000	   1.032221	   0.000000; % NG
	2	 0.0	 0.0	 3	   0.000000	   1.175166	   0.000000; % NG
	2	 0.0	 0.0	 3	   0.000000	   1.137019	   0.000000; % NG
	2	 0.0	 0.0	 3	   0.000000	   1.189940	   0.000000; % COW
	2	 0.0	 0.0	 3	   0.000000	   0.647004	   0.000000; % COW
	2	 0.0	 0.0	 3	   0.000000	   0.000000	   0.000000; % SYNC
	2	 0.0	 0.0	 3	   0.000000	   1.220124	   0.000000; % NG
	2	 0.0	 0.0	 3	   0.000000	   0.605520	   0.000000; % COW
	2	 0.0	 0.0	 3	   0.000000	   0.909336	   0.000000; % NG
	2	 0.0	 0.0	 3	   0.000000	   0.802491	   0.000000; % COW
	2	 0.0	 0.0	 3	   0.000000	   0.899743	   0.000000; % COW
	2	 0.0	 0.0	 3	   0.000000	   0.413699	   0.000000; % COW
	2	 0.0	 0.0	 3	   0.000000	   0.596709	   0.000000; % COW
	2	 0.0	 0.0	 3	   0.000000	   1.281688	   0.000000; % COW
	2	 0.0	 0.0	 3	   0.000000	   0.989059	   0.000000; % COW
	2	 0.0	 0.0	 3	   0.000000	   0.696436	   0.000000; % NG
	2	 0.0	 0.0	 3	   0.000000	   1.237479	   0.000000; % NG
	2	 0.0	 0.0	 3	   0.000000	   1.385876	   0.000000; % NG
	2	 0.0	 0.0	 3	   0.000000	   0.767049	   0.000000; % NG
	2	 0.0	 0.0	 3	   0.000000	   0.885530	   0.000000; % COW
	2	 0.0	 0.0	 3	   0.000000	   0.758721	   0.000000; % COW
	2	 0.0	 0.0	 3	   0.000000	   0.373718	   0.000000; % COW
	2	 0.0	 0.0	 3	   0.000000	   1.337796	   0.000000; % NG
	2	 0.0	 0.0	 3	   0.000000	   1.301235	   0.000000; % NG
	2	 0.0	 0.0	 3	   0.000000	   1.023471	   0.000000; % NG
	2	 0.0	 0.0	 3	   0.000000	   1.229958	   0.000000; % NG
	2	 0.0	 0.0	 3	   0.000000	   1.172916	   0.000000; % NG
	2	 0.0	 0.0	 3	   0.000000	   0.997054	   0.000000; % NG
	2	 0.0	 0.0	 3	   0.000000	   0.896492	   0.000000; % NG
	2	 0.0	 0.0	 3	   0.000000	   0.912338	   0.000000; % COW
	2	 0.0	 0.0	 3	   0.000000	   0.419944	   0.000000; % COW
	2	 0.0	 0.0	 3	   0.000000	   0.000000	   0.000000; % SYNC
	2	 0.0	 0.0	 3	   0.000000	   0.000000	   0.000000; % SYNC
	2	 0.0	 0.0	 3	   0.000000	   0.570651	   0.000000; % NG
	2	 0.0	 0.0	 3	   0.000000	   0.843811	   0.000000; % NG
	2	 0.0	 0.0	 3	   0.000000	   1.042634	   0.000000; % NG
	2	 0.0	 0.0	 3	   0.000000	   0.203996	   0.000000; % NUC
	2	 0.0	 0.0	 3	   0.000000	   1.274942	   0.000000; % NG
	2	 0.0	 0.0	 3	   0.000000	   0.735272	   0.000000; % COW
	2	 0.0	 0.0	 3	   0.000000	   1.014045	   0.000000; % COW
	2	 0.0	 0.0	 3	   0.000000	   1.068760	   0.000000; % NG
	2	 0.0	 0.0	 3	   0.000000	   0.614838	   0.000000; % COW
	2	 0.0	 0.0	 3	   0.000000	   1.125620	   0.000000; % COW
	2	 0.0	 0.0	 3	   0.000000	   0.790117	   0.000000; % NG
	2	 0.0	 0.0	 3	   0.000000	   0.841937	   0.000000; % NG
	2	 0.0	 0.0	 3	   0.000000	   0.954047	   0.000000; % COW
	2	 0.0	 0.0	 3	   0.000000	   1.096160	   0.000000; % COW
	2	 0.0	 0.0	 3	   0.000000	   1.179625	   0.000000; % COW
	2	 0.0	 0.0	 3	   0.000000	   1.150123	   0.000000; % NG
	2	 0.0	 0.0	 3	   0.000000	   0.651942	   0.000000; % COW
	2	 0.0	 0.0	 3	   0.000000	   1.072560	   0.000000; % NG
	2	 0.0	 0.0	 3	   0.000000	   0.000000	   0.000000; % SYNC
	2	 0.0	 0.0	 3	   0.000000	   0.855426	   0.000000; % NG
	2	 0.0	 0.0	 3	   0.000000	   0.839542	   0.000000; % NG
	2	 0.0	 0.0	 3	   0.000000	   1.048974	   0.000000; % NG
	2	 0.0	 0.0	 3	   0.000000	   0.691272	   0.000000; % COW
	2	 0.0	 0.0	 3	   0.000000	   1.110159	   0.000000; % NG
	2	 0.0	 0.0	 3	   0.000000	   0.852396	   0.000000; % NG
	2	 0.0	 0.0	 3	   0.000000	   1.091702	   0.000000; % NG
	2	 0.0	 0.0	 3	   0.000000	   0.764052	   0.000000; % NG
	2	 0.0	 0.0	 3	   0.000000	   1.304240	   0.000000; % NG
	2	 0.0	 0.0	 3	   0.000000	   0.939583	   0.000000; % COW
	2	 0.0	 0.0	 3	   0.000000	   0.889511	   0.000000; % NG
	2	 0.0	 0.0	 3	   0.000000	   0.934687	   0.000000; % NG
	2	 0.0	 0.0	 3	   0.000000	   1.161538	   0.000000; % NG
	2	 0.0	 0.0	 3	   0.000000	   0.976561	   0.000000; % NG
	2	 0.0	 0.0	 3	   0.000000	   0.941076	   0.000000; % COW
	2	 0.0	 0.0	 3	   0.000000	   1.071590	   0.000000; % NG
	2	 0.0	 0.0	 3	   0.000000	   1.391891	   0.000000; % NG
	2	 0.0	 0.0	 3	   0.000000	   0.838586	   0.000000; % COW
	2	 0.0	 0.0	 3	   0.000000	   0.746472	   0.000000; % COW
	2	 0.0	 0.0	 3	   0.000000	   1.135879	   0.000000; % NG
	2	 0.0	 0.0	 3	   0.000000	   0.774385	   0.000000; % COW
	2	 0.0	 0.0	 3	   0.000000	   0.962980	   0.000000; % NG
	2	 0.0	 0.0	 3	   0.000000	   0.782477	   0.000000; % COW
	2	 0.0	 0.0	 3	   0.000000	   1.023100	   0.000000; % COW
	2	 0.0	 0.0	 3	   0.000000	   1.115150	   0.000000; % NG
	2	 0.0	 0.0	 3	   0.000000	   0.807797	   0.000000; % NG
	2	 0.0	 0.0	 3	   0.000000	   1.266850	   0.000000; % NG
	2	 0.0	 0.0	 3	   0.000000	   1.148854	   0.000000; % NG
	2	 0.0	 0.0	 3	   0.000000	   1.092357	   0.000000; % NG
	2	 0.0	 0.0	 3	   0.000000	   0.462197	   0.000000; % COW
	2	 0.0	 0.0	 3	   0.000000	   1.295953	   0.000000; % NG
	2	 0.0	 0.0	 3	   0.000000	   0.738441	   0.000000; % NG
	2	 0.0	 0.0	 3	   0.000000	   1.251987	   0.000000; % NG
	2	 0.0	 0.0	 3	   0.000000	   0.902950	   0.000000; % COW
	2	 0.0	 0.0	 3	   0.000000	   0.482116	   0.000000; % COW
	2	 0.0	 0.0	 3	   0.000000	   1.080973	   0.000000; % NG
	2	 0.0	 0.0	 3	   0.000000	   1.156155	   0.000000; % COW
	2	 0.0	 0.0	 3	   0.000000	   0.647612	   0.000000; % COW
	2	 0.0	 0.0	 3	   0.000000	   0.588263	   0.000000; % COW
	2	 0.0	 0.0	 3	   0.000000	   7.156827	   0.000000; % PEL
	2	 0.0	 0.0	 3	   0.000000	   6.122420	   0.000000; % PEL
	2	 0.0	 0.0	 3	   0.000000	   0.973149	   0.000000; % NG
	2	 0.0	 0.0	 3	   0.000000	   6.900700	   0.000000; % PEL
	2	 0.0	 0.0	 3	   0.000000	   7.074383	   0.000000; % PEL
	2	 0.0	 0.0	 3	   0.000000	   1.582361	   0.000000; % NG
	2	 0.0	 0.0	 3	   0.000000	   1.142341	   0.000000; % NG
	2	 0.0	 0.0	 3	   0.000000	   0.621009	   0.000000; % NG
	2	 0.0	 0.0	 3	   0.000000	   1.101401	   0.000000; % NG
	2	 0.0	 0.0	 3	   0.000000	   1.154538	   0.000000; % NG
	2	 0.0	 0.0	 3	   0.000000	   1.243232	   0.000000; % NG
	2	 0.0	 0.0	 3	   0.000000	   0.685081	   0.000000; % NG
	2	 0.0	 0.0	 3	   0.000000	   1.217400	   0.000000; % NG
	2	 0.0	 0.0	 3	   0.000000	   0.744269	   0.000000; % COW
	2	 0.0	 0.0	 3	   0.000000	   6.736145	   0.000000; % PEL
	2	 0.0	 0.0	 3	   0.000000	   1.076719	   0.000000; % NG
	2	 0.0	 0.0	 3	   0.000000	   0.964632	   0.000000; % NG
	2	 0.0	 0.0	 3	   0.000000	   6.861788	   0.000000; % PEL
	2	 0.0	 0.0	 3	   0.000000	   0.237815	   0.000000; % NUC
	2	 0.0	 0.0	 3	   0.000000	   0.977214	   0.000000; % NG
	2	 0.0	 0.0	 3	   0.000000	   0.640000	   0.000000; % NG
	2	 0.0	 0.0	 3	   0.000000	   0.885688	   0.000000; % NG
	2	 0.0	 0.0	 3	   0.000000	   0.836369	   0.000000; % COW
	2	 0.0	 0.0	 3	   0.000000	   1.011956	   0.000000; % NG
	2	 0.0	 0.0	 3	   0.000000	   1.058200	   0.000000; % NG
	2	 0.0	 0.0	 3	   0.000000	   0.968792	   0.000000; % COW
	2	 0.0	 0.0	 3	   0.000000	   0.738661	   0.000000; % NG
...
];

%% branch data
%	fbus	tbus	r	x	b	rateA	rateB	rateC	ratio	angle	status	angmin	angmax
mpc.branch = [
	1	 2	 0.00089	 0.02682	 0.0	 862	 862	 862	 0.9991	 0.0	 1	 -30.0	 30.0;
	1	 3	 0.00055	 0.027	 0.0	 1087	 1087	 1087	 0.9999	 0.0	 1	 -30.0	 30.0;
	1	 4	 0.0008	 0.02677	 0.0	 906	 906	 906	 0.9992	 0.0	 1	 -30.0	 30.0;
	5	 6	 0.00213	 0.11452	 0.0	 257	 257	 257	 1.0138	 0.0	 1	 -30.0	 30.0;
	5	 7	 0.00213	 0.11471	 0.0	 256	 256	 256	 1.0138	 0.0	 1	 -30.0	 30.0;
	8	 9	 0.00213	 0.11316	 0.0	 260	 260	 260	 1.013	 0.0	 1	 -30.0	 30.0;
	8	 10	 0.00206	 0.11458	 0.0	 256	 256	 256	 1.0139	 0.0	 1	 -30.0	 30.0;
	8	 11	 0.00206	 0.1149	 0.0	 256	 256	 256	 1.0139	 0.0	 1	 -30.0	 30.0;
	5	 12	 0.00194	 0.10912	 0.0	 269	 269	 269	 1.0138	 0.0	 1	 -30.0	 30.0;
	8	 13	 0.001	 0.08396	 0.0	 350	 350	 350	 1.0221	 0.0	 1	 -30.0	 30.0;
	14	 15	 0.0003	 0.02828	 0.0	 1038	 1038	 1038	 1.0282	 0.0	 1	 -30.0	 30.0;
	14	 16	 0.00048	 0.02805	 0.0	 1046	 1046	 1046	 1.0175	 0.0	 1	 -30.0	 30.0;
	14	 17	 0.00032	 0.02788	 0.0	 1053	 1053	 1053	 1.0261	 0.0	 1	 -30.0	 30.0;
	14	 18	 0.00035	 0.0278	 0.0	 1056	 1056	 1056	 1.0238	 0.0	 1	 -30.0	 30.0;
	19	 20	 0.0013	 0.06616	 0.0	 444	 444	 444	 1.0337	 0.0	 1	 -30.0	 30.0;
	19	 21	 0.0013	 0.06616	 0.0	 444	 444	 444	 1.0337	 0.0	 1	 -30.0	 30.0;
	19	 22	 0.0013	 0.06616	 0.0	 444	 444	 444	 1.0445	 0.0	 1	 -30.0	 30.0;
	23	 24	 0.00068	 0.02772	 0.0	 1058	 1058	 1058	 1.0313	 0.0	 1	 -30.0	 30.0;
	23	 25	 0.00075	 0.02715	 0.0	 1080	 1080	 1080	 1.028	 0.0	 1	 -30.0	 30.0;
	26	 27	 0.0007	 0.02673	 0.0	 1097	 1097	 1097	 1.0224	 0.0	 1	 -30.0	 30.0;
	26	 28	 0.00068	 0.02767	 0.0	 1060	 1060	 1060	 1.0237	 0.0	 1	 -30.0	 30.0;
	29	 30	 0.0007	 0.04677	 0.0	 628	 628	 628	 0.9796	 0.0	 1	 -30.0	 30.0;
	29	 31	 0.0007	 0.04677	 0.0	 628	 628	 628	 0.9796	 0.0	 1	 -30.0	 30.0;
	29	 32	 0.0007	 0.04677	 0.0	 628	 628	 628	 0.9796	 0.0	 1	 -30.0	 30.0;
	29	 33	 0.0007	 0.04677	 0.0	 628	 628	 628	 0.9796	 0.0	 1	 -30.0	 30.0;
	29	 34	 0.0007	 0.04677	 0.0	 628	 628	 628	 0.9796	 0.0	 1	 -30.0	 30.0;
	29	 35	 0.0007	 0.04677	 0.0	 628	 628	 628	 1.0386	 0.0	 1	 -30.0	 30.0;
	36	 37	 0.00039	 0.01976	 0.0	 1485	 1485	 1485	 1.0163	 0.0	 1	 -30.0	 30.0;
	36	 38	 0.00039	 0.01966	 0.0	 1492	 1492	 1492	 1.0163	 0.0	 1	 -30.0	 30.0;
	36	 39	 0.00039	 0.02009	 0.0	 1460	 1460	 1460	 1.0166	 0.0	 1	 -30.0	 30.0;
	40	 41	 0.00045	 0.01915	 0.0	 1478	 1478	 1478	 1.0211	 0.0	 1	 -30.0	 30.0;
	40	 42	 0.00045	 0.01931	 0.0	 1484	 1484	 1484	 1.0213	 0.0	 1	 -30.0	 30.0;
	40	 43	 0.00043	 0.01911	 0.0	 1509	 1509	 1509	 1.022	 0.0	 1	 -30.0	 30.0;
	44	 45	 0.0002	 0.02043	 0.0	 1436	 1436	 1436	 1.0319	 0.0	 1	 -30.0	 30.0;
	44	 46	 0.00021	 0.02056	 0.0	 1427	 1427	 1427	 1.0305	 0.0	 1	 -30.0	 30.0;
	47	 48	 0.00073	 0.02523	 0.0	 1163	 1163	 1163	 1.0302	 0.0	 1	 -30.0	 30.0;
	47	 49	 0.0011	 0.0277	 0.0	 1059	 1059	 1059	 1.0221	 0.0	 1	 -30.0	 30.0;
	50	 51	 0.00091	 0.02577	 0.0	 1138	 1138	 1138	 1.0205	 0.0	 1	 -30.0	 30.0;
	50	 52	 0.00073	 0.02702	 0.0	 1086	 1086	 1086	 1.0263	 0.0	 1	 -30.0	 30.0;
	53	 54	 0.00073	 0.02523	 0.0	 1163	 1163	 1163	 1.0175	 0.0	 1	 -30.0	 30.0;
	53	 55	 0.00073	 0.02532	 0.0	 1158	 1158	 1158	 1.0175	 0.0	 1	 -30.0	 30.0;
	56	 57	 0.00059	 0.028	 0.0	 1048	 1048	 1048	 1.05	 0.0	 1	 -30.0	 30.0;
	58	 59	 0.0003	 0.02778	 0.0	 1056	 1056	 1056	 1.0747	 0.0	 1	 -30.0	 30.0;
	60	 61	 0.00062	 0.02754	 0.0	 1037	 1037	 1037	 1.0659	 0.0	 1	 -30.0	 30.0;
	56	 62	 0.00056	 0.02818	 0.0	 1041	 1041	 1041	 1.0528	 0.0	 1	 -30.0	 30.0;
	63	 64	 0.004	 0.09778	 0.0	 300	 300	 300	 0.0	 0.0	 1	 -30.0	 30.0;
	63	 65	 0.004	 0.09778	 0.0	 300	 300	 300	 0.0	 0.0	 1	 -30.0	 30.0;
	66	 67	 0.00045	 0.0293	 0.0	 1001	 1001	 1001	 1.0281	 0.0	 1	 -30.0	 30.0;
	68	 69	 0.0004	 0.02928	 0.0	 1002	 1002	 1002	 1.0285	 0.0	 1	 -30.0	 30.0;
	70	 71	 0.00045	 0.02893	 0.0	 1014	 1014	 1014	 1.0371	 0.0	 1	 -30.0	 30.0;
	72	 73	 0.00045	 0.02773	 0.0	 1058	 1058	 1058	 1.0353	 0.0	 1	 -30.0	 30.0;
...